@<TRIPOS>MOLECULE
Molport-047-015-071 MCULE-1233663536 PubChem-155985059
 28 30 0 0 0
SMALL
GASTEIGER

@<TRIPOS>ATOM
      1 N           8.5089   42.9048   10.8590 N.3     1  UNL1       -0.1450
      2 C           8.3868   42.2016   12.1505 C.3     1  UNL1        0.0969
      3 C           9.5319   41.2429   12.4813 C.3     1  UNL1        0.0196
      4 C          10.0538   40.5971   11.2189 C.3     1  UNL1        0.0089
      5 C          10.6879   41.6806   10.3629 C.3     1  UNL1        0.0581
      6 C           9.8664   42.9812   10.2854 C.3     1  UNL1        0.1027
      7 N          11.6176   42.0441    8.1107 N.ar    1  UNL1       -0.2348
      8 C          11.0875   41.1746    9.0136 C.ar    1  UNL1        0.0614
      9 C          10.9311   39.8271    8.6676 C.ar    1  UNL1        0.0149
     10 C          11.3188   39.3968    7.3995 C.ar    1  UNL1        0.0041
     11 C          11.8576   40.3091    6.4925 C.ar    1  UNL1        0.0344
     12 C          12.0045   41.6517    6.8661 C.ar    1  UNL1        0.1332
     13 N          12.5533   42.6283    5.9713 N.pl3   1  UNL1       -0.2782
     14 H          12.0231   42.8398    5.1692 H       1  UNL1        0.1555
     15 S          15.0980   42.7222    6.9933 S.2     1  UNL1       -0.0557
     16 N          14.0557   44.5438    5.5933 N.ar    1  UNL1       -0.2228
     17 C          13.7940   43.3281    6.1244 C.ar    1  UNL1        0.1643
     18 C          16.0368   44.0791    6.6727 C.ar    1  UNL1        0.0293
     19 C          15.3105   44.9715    5.8959 C.ar    1  UNL1        0.1030
     20 C          17.4289   44.2891    7.1480 C.3     1  UNL1        0.0399
     21 S           7.3762   42.2555    9.7042 S.O2    1  UNL1        0.1020
     22 O           8.1331   41.5781    8.5941 O.2     1  UNL1       -0.1408
     23 O           6.4709   41.2500   10.3639 O.2     1  UNL1       -0.1408
     24 N           6.4307   43.5497    9.0284 N.3     1  UNL1       -0.1454
     25 C           5.2534   42.9679    8.4033 C.3     1  UNL1        0.0969
     26 C           4.0018   43.5115    9.0635 C.3     1  UNL1        0.0207
     27 C           7.2109   44.1615    7.9630 C.3     1  UNL1        0.0969
     28 C           6.5998   43.8175    6.6192 C.3     1  UNL1        0.0207
@<TRIPOS>BOND
     1    21    24    1
     2    21     1    1
     3    13    17    1
     4    25    24    1
     5    25    26    1
     6    27    24    1
     7    27    28    1
     8     2     1    1
     9     2     3    1
    10     3     4    1
    11     4     5    1
    12     5     8    1
    13     5     6    1
    14     8     7   ar
    15     9    10   ar
    16    11    12   ar
    17    12    13    1
    18    17    15   ar
    19    18    15   ar
    20    19    16   ar
    21    20    18    1
    22     6     1    1
    23    21    22    2
    24    21    23    2
    25     8     9   ar
    26    10    11   ar
    27    12     7   ar
    28    17    16   ar
    29    18    19   ar
    30    13    14    1
@<TRIPOS>MOLECULE
Molport-047-015-071 MCULE-1233663536 PubChem-155985059
 28 30 0 0 0
SMALL
GASTEIGER

@<TRIPOS>ATOM
      1 N           7.6128   42.5588    9.9045 N.3     1  UNL1       -0.1450
      2 C           7.0737   41.9960   11.1575 C.3     1  UNL1        0.0969
      3 C           8.1219   41.6094   12.2023 C.3     1  UNL1        0.0196
      4 C           9.3737   41.1033   11.5240 C.3     1  UNL1        0.0089
      5 C           9.9949   42.2595   10.7583 C.3     1  UNL1        0.0581
      6 C           8.9792   43.1116    9.9743 C.3     1  UNL1        0.1027
      7 N          11.4792   42.5555    8.8146 N.ar    1  UNL1       -0.2348
      8 C          11.1495   41.8237    9.9136 C.ar    1  UNL1        0.0614
      9 C          11.8963   40.6844   10.2363 C.ar    1  UNL1        0.0149
     10 C          12.9665   40.3148    9.4230 C.ar    1  UNL1        0.0041
     11 C          13.2819   41.0814    8.3013 C.ar    1  UNL1        0.0344
     12 C          12.5185   42.2180    8.0031 C.ar    1  UNL1        0.1332
     13 N          12.8020   43.0397    6.8628 N.pl3   1  UNL1       -0.2782
     14 H          12.0448   43.2475    6.2689 H       1  UNL1        0.1555
     15 S          15.5401   42.8635    6.8809 S.2     1  UNL1       -0.0557
     16 N          14.2393   44.7431    5.8132 N.ar    1  UNL1       -0.2228
     17 C          14.0739   43.5893    6.4988 C.ar    1  UNL1        0.1643
     18 C          16.4229   44.0834    6.1339 C.ar    1  UNL1        0.0293
     19 C          15.5527   45.0268    5.6047 C.ar    1  UNL1        0.1030
     20 C          17.9055   44.1413    6.0534 C.3     1  UNL1        0.0399
     21 S           7.4701   41.4021    8.6083 S.O2    1  UNL1        0.1020
     22 O           8.3806   40.2358    8.8819 O.2     1  UNL1       -0.1408
     23 O           6.0540   40.9033    8.5022 O.2     1  UNL1       -0.1408
     24 N           7.9492   42.1468    7.1111 N.3     1  UNL1       -0.1454
     25 C           6.7933   42.8382    6.5624 C.3     1  UNL1        0.0969
     26 C           6.6826   44.2189    7.1782 C.3     1  UNL1        0.0207
     27 C           8.2857   41.0856    6.1738 C.3     1  UNL1        0.0969
     28 C           9.7771   40.8181    6.2178 C.3     1  UNL1        0.0207
@<TRIPOS>BOND
     1    21    24    1
     2    21     1    1
     3    13    17    1
     4    25    24    1
     5    25    26    1
     6    27    24    1
     7    27    28    1
     8     2     1    1
     9     2     3    1
    10     3     4    1
    11     4     5    1
    12     5     8    1
    13     5     6    1
    14     8     7   ar
    15     9    10   ar
    16    11    12   ar
    17    12    13    1
    18    17    15   ar
    19    18    15   ar
    20    19    16   ar
    21    20    18    1
    22     6     1    1
    23    21    22    2
    24    21    23    2
    25     8     9   ar
    26    10    11   ar
    27    12     7   ar
    28    17    16   ar
    29    18    19   ar
    30    13    14    1
@<TRIPOS>MOLECULE
Molport-047-015-071 MCULE-1233663536 PubChem-155985059
 28 30 0 0 0
SMALL
GASTEIGER

@<TRIPOS>ATOM
      1 N          12.6497   38.1702   10.4836 N.3     1  UNL1       -0.1450
      2 C          12.0791   36.8641   10.1016 C.3     1  UNL1        0.0969
      3 C          13.0503   35.6842   10.1674 C.3     1  UNL1        0.0196
      4 C          14.4441   36.1335    9.7951 C.3     1  UNL1        0.0089
      5 C          14.9295   37.0979   10.8644 C.3     1  UNL1        0.0581
      6 C          13.8746   38.1299   11.3054 C.3     1  UNL1        0.1027
      7 N          16.3027   39.0859   10.3841 N.ar    1  UNL1       -0.2348
      8 C          16.2351   37.7320   10.5043 C.ar    1  UNL1        0.0614
      9 C          17.3843   36.9602   10.2952 C.ar    1  UNL1        0.0149
     10 C          18.5819   37.5920    9.9633 C.ar    1  UNL1        0.0041
     11 C          18.6232   38.9811    9.8446 C.ar    1  UNL1        0.0344
     12 C          17.4581   39.7290   10.0612 C.ar    1  UNL1        0.1332
     13 N          17.4479   41.1586    9.9522 N.pl3   1  UNL1       -0.2782
     14 H          17.8789   41.6602   10.6815 H       1  UNL1        0.1555
     15 S          17.4354   43.4523    8.4465 S.2     1  UNL1       -0.0557
     16 N          15.8287   41.5325    8.1336 N.ar    1  UNL1       -0.2228
     17 C          16.8750   41.9322    8.8912 C.ar    1  UNL1        0.1643
     18 C          16.2849   43.6018    7.2301 C.ar    1  UNL1        0.0293
     19 C          15.4920   42.4625    7.2005 C.ar    1  UNL1        0.1030
     20 C          16.1405   44.7729    6.3271 C.3     1  UNL1        0.0399
     21 S          12.8732   39.1711    9.0741 S.O2    1  UNL1        0.1020
     22 O          13.5014   40.4748    9.4863 O.2     1  UNL1       -0.1408
     23 O          13.7731   38.4866    8.0805 O.2     1  UNL1       -0.1408
     24 N          11.3284   39.4998    8.3454 N.3     1  UNL1       -0.1454
     25 C          11.4891   40.6255    7.4386 C.3     1  UNL1        0.0969
     26 C          11.3980   40.1444    6.0040 C.3     1  UNL1        0.0207
     27 C          10.4235   39.9367    9.3982 C.3     1  UNL1        0.0969
     28 C          11.1775   40.7884   10.4000 C.3     1  UNL1        0.0207
@<TRIPOS>BOND
     1    21    24    1
     2    21     1    1
     3    13    17    1
     4    25    24    1
     5    25    26    1
     6    27    24    1
     7    27    28    1
     8     2     1    1
     9     2     3    1
    10     3     4    1
    11     4     5    1
    12     5     8    1
    13     5     6    1
    14     8     7   ar
    15     9    10   ar
    16    11    12   ar
    17    12    13    1
    18    17    15   ar
    19    18    15   ar
    20    19    16   ar
    21    20    18    1
    22     6     1    1
    23    21    22    2
    24    21    23    2
    25     8     9   ar
    26    10    11   ar
    27    12     7   ar
    28    17    16   ar
    29    18    19   ar
    30    13    14    1
@<TRIPOS>MOLECULE
Molport-047-015-071 MCULE-1233663536 PubChem-155985059
 28 30 0 0 0
SMALL
GASTEIGER

@<TRIPOS>ATOM
      1 N           7.5245   42.9457    7.9045 N.3     1  UNL1       -0.1450
      2 C           6.9697   44.1715    8.5103 C.3     1  UNL1        0.0969
      3 C           7.9460   44.9701    9.3757 C.3     1  UNL1        0.0196
      4 C           8.8965   44.0365   10.0884 C.3     1  UNL1        0.0089
      5 C           9.7666   43.3608    9.0417 C.3     1  UNL1        0.0581
      6 C           8.9949   42.8801    7.7985 C.3     1  UNL1        0.1027
      7 N          11.7302   41.8766    8.9426 N.ar    1  UNL1       -0.2348
      8 C          10.6302   42.2904    9.6288 C.ar    1  UNL1        0.0614
      9 C          10.3302   41.7137   10.8688 C.ar    1  UNL1        0.0149
     10 C          11.1634   40.7202   11.3808 C.ar    1  UNL1        0.0041
     11 C          12.2834   40.3132   10.6562 C.ar    1  UNL1        0.0344
     12 C          12.5607   40.9089    9.4184 C.ar    1  UNL1        0.1332
     13 N          13.6994   40.5268    8.6353 N.pl3   1  UNL1       -0.2782
     14 H          13.7490   39.5831    8.3592 H       1  UNL1        0.1555
     15 S          14.6140   42.5409    7.0119 S.2     1  UNL1       -0.0557
     16 N          16.0224   41.3417    8.7274 N.ar    1  UNL1       -0.2228
     17 C          14.7723   41.3772    8.2132 C.ar    1  UNL1        0.1643
     18 C          16.2190   43.0179    7.1596 C.ar    1  UNL1        0.0293
     19 C          16.8390   42.2581    8.1423 C.ar    1  UNL1        0.1030
     20 C          16.8715   44.0877    6.3612 C.3     1  UNL1        0.0399
     21 S           6.8901   41.5324    8.7035 S.O2    1  UNL1        0.1020
     22 O           5.9864   40.7908    7.7562 O.2     1  UNL1       -0.1408
     23 O           8.0101   40.6202    9.1266 O.2     1  UNL1       -0.1408
     24 N           5.9651   42.0185   10.0942 N.3     1  UNL1       -0.1454
     25 C           6.1770   41.0329   11.1424 C.3     1  UNL1        0.0969
     26 C           7.2984   41.4889   12.0548 C.3     1  UNL1        0.0207
     27 C           4.5559   41.9526    9.7367 C.3     1  UNL1        0.0969
     28 C           3.8675   40.8857   10.5646 C.3     1  UNL1        0.0207
@<TRIPOS>BOND
     1    21    24    1
     2    21     1    1
     3    13    17    1
     4    25    24    1
     5    25    26    1
     6    27    24    1
     7    27    28    1
     8     2     1    1
     9     2     3    1
    10     3     4    1
    11     4     5    1
    12     5     8    1
    13     5     6    1
    14     8     7   ar
    15     9    10   ar
    16    11    12   ar
    17    12    13    1
    18    17    15   ar
    19    18    15   ar
    20    19    16   ar
    21    20    18    1
    22     6     1    1
    23    21    22    2
    24    21    23    2
    25     8     9   ar
    26    10    11   ar
    27    12     7   ar
    28    17    16   ar
    29    18    19   ar
    30    13    14    1
@<TRIPOS>MOLECULE
Molport-047-015-071 MCULE-1233663536 PubChem-155985059
 28 30 0 0 0
SMALL
GASTEIGER

@<TRIPOS>ATOM
      1 N          12.8594   40.5760    7.9486 N.3     1  UNL1       -0.1450
      2 C          14.0956   40.4061    8.7362 C.3     1  UNL1        0.0969
      3 C          13.8895   39.9565   10.1836 C.3     1  UNL1        0.0196
      4 C          12.6146   40.5483   10.7380 C.3     1  UNL1        0.0089
      5 C          11.4458   39.9493    9.9739 C.3     1  UNL1        0.0581
      6 C          11.6652   39.8698    8.4514 C.3     1  UNL1        0.1027
      7 N           9.2154   40.7950    9.3585 N.ar    1  UNL1       -0.2348
      8 C          10.1451   40.5945   10.3319 C.ar    1  UNL1        0.0614
      9 C           9.8673   40.9885   11.6463 C.ar    1  UNL1        0.0149
     10 C           8.6410   41.5844   11.9373 C.ar    1  UNL1        0.0041
     11 C           7.7067   41.7801   10.9204 C.ar    1  UNL1        0.0344
     12 C           8.0105   41.3742    9.6140 C.ar    1  UNL1        0.1332
     13 N           7.0845   41.5521    8.5339 N.pl3   1  UNL1       -0.2782
     14 H           7.2518   41.0275    7.7178 H       1  UNL1        0.1555
     15 S           5.8532   43.8219    7.6062 S.2     1  UNL1       -0.0557
     16 N           4.8126   42.1987    9.2333 N.ar    1  UNL1       -0.2228
     17 C           5.9409   42.4149    8.5201 C.ar    1  UNL1        0.1643
     18 C           4.3006   44.1664    8.1505 C.ar    1  UNL1        0.0293
     19 C           3.8886   43.1758    9.0316 C.ar    1  UNL1        0.1030
     20 C           3.4952   45.3489    7.7495 C.3     1  UNL1        0.0399
     21 S          12.5271   42.2685    7.6971 S.O2    1  UNL1        0.1020
     22 O          11.5155   42.4166    6.5931 O.2     1  UNL1       -0.1408
     23 O          11.9754   42.8884    8.9529 O.2     1  UNL1       -0.1408
     24 N          13.9906   43.0834    7.2281 N.3     1  UNL1       -0.1454
     25 C          13.8147   43.5793    5.8723 C.3     1  UNL1        0.0969
     26 C          14.8548   44.6418    5.5769 C.3     1  UNL1        0.0207
     27 C          15.0550   42.0922    7.1762 C.3     1  UNL1        0.0969
     28 C          16.2904   42.6314    7.8694 C.3     1  UNL1        0.0207
@<TRIPOS>BOND
     1    21    24    1
     2    21     1    1
     3    13    17    1
     4    25    24    1
     5    25    26    1
     6    27    24    1
     7    27    28    1
     8     2     1    1
     9     2     3    1
    10     3     4    1
    11     4     5    1
    12     5     8    1
    13     5     6    1
    14     8     7   ar
    15     9    10   ar
    16    11    12   ar
    17    12    13    1
    18    17    15   ar
    19    18    15   ar
    20    19    16   ar
    21    20    18    1
    22     6     1    1
    23    21    22    2
    24    21    23    2
    25     8     9   ar
    26    10    11   ar
    27    12     7   ar
    28    17    16   ar
    29    18    19   ar
    30    13    14    1
@<TRIPOS>MOLECULE
Molport-047-015-071 MCULE-1233663536 PubChem-155985059
 28 30 0 0 0
SMALL
GASTEIGER

@<TRIPOS>ATOM
      1 N           7.5623   41.9139    6.9863 N.3     1  UNL1       -0.1450
      2 C           6.2877   41.9323    7.7294 C.3     1  UNL1        0.0969
      3 C           6.4165   42.1418    9.2392 C.3     1  UNL1        0.0196
      4 C           7.6786   41.4877    9.7515 C.3     1  UNL1        0.0089
      5 C           8.8664   42.2229    9.1534 C.3     1  UNL1        0.0581
      6 C           8.7150   42.5474    7.6554 C.3     1  UNL1        0.1027
      7 N          11.1575   41.5624    8.5342 N.ar    1  UNL1       -0.2348
      8 C          10.1645   41.5489    9.4648 C.ar    1  UNL1        0.0614
      9 C          10.3760   40.9124   10.6937 C.ar    1  UNL1        0.0149
     10 C          11.6022   40.2981   10.9441 C.ar    1  UNL1        0.0041
     11 C          12.6023   40.3250    9.9722 C.ar    1  UNL1        0.0344
     12 C          12.3639   40.9710    8.7517 C.ar    1  UNL1        0.1332
     13 N          13.3589   41.0275    7.7209 N.pl3   1  UNL1       -0.2782
     14 H          13.1382   40.5852    6.8694 H       1  UNL1        0.1555
     15 S          15.0545   43.0316    6.9230 S.2     1  UNL1       -0.0557
     16 N          15.6554   41.2341    8.5882 N.ar    1  UNL1       -0.2228
     17 C          14.6411   41.6612    7.8025 C.ar    1  UNL1        0.1643
     18 C          16.6010   43.0768    7.5800 C.ar    1  UNL1        0.0293
     19 C          16.7571   42.0222    8.4692 C.ar    1  UNL1        0.1030
     20 C          17.6392   44.0898    7.2577 C.3     1  UNL1        0.0399
     21 S           7.9463   40.2912    6.4788 S.O2    1  UNL1        0.1020
     22 O           8.7659   39.6185    7.5465 O.2     1  UNL1       -0.1408
     23 O           6.6866   39.4979    6.2561 O.2     1  UNL1       -0.1408
     24 N           8.8776   40.3477    5.0107 N.3     1  UNL1       -0.1454
     25 C           9.3719   39.0070    4.7397 C.3     1  UNL1        0.0969
     26 C           9.2501   38.7061    3.2589 C.3     1  UNL1        0.0207
     27 C          10.0446   41.1821    5.2558 C.3     1  UNL1        0.0969
     28 C          11.3072   40.3699    5.0469 C.3     1  UNL1        0.0207
@<TRIPOS>BOND
     1    21    24    1
     2    21     1    1
     3    13    17    1
     4    25    24    1
     5    25    26    1
     6    27    24    1
     7    27    28    1
     8     2     1    1
     9     2     3    1
    10     3     4    1
    11     4     5    1
    12     5     8    1
    13     5     6    1
    14     8     7   ar
    15     9    10   ar
    16    11    12   ar
    17    12    13    1
    18    17    15   ar
    19    18    15   ar
    20    19    16   ar
    21    20    18    1
    22     6     1    1
    23    21    22    2
    24    21    23    2
    25     8     9   ar
    26    10    11   ar
    27    12     7   ar
    28    17    16   ar
    29    18    19   ar
    30    13    14    1
@<TRIPOS>MOLECULE
Molport-047-015-071 MCULE-1233663536 PubChem-155985059
 28 30 0 0 0
SMALL
GASTEIGER

@<TRIPOS>ATOM
      1 N          12.7228   41.1462    7.9454 N.3     1  UNL1       -0.1450
      2 C          12.1504   41.0433    6.5892 C.3     1  UNL1        0.0969
      3 C          10.7265   41.5820    6.4402 C.3     1  UNL1        0.0196
      4 C           9.9391   41.3340    7.7057 C.3     1  UNL1        0.0089
      5 C          10.5568   42.1676    8.8159 C.3     1  UNL1        0.0581
      6 C          12.0965   42.1363    8.8426 C.3     1  UNL1        0.1027
      7 N           8.6631   42.2226   10.3906 N.ar    1  UNL1       -0.2348
      8 C           9.9548   41.8670   10.1514 C.ar    1  UNL1        0.0614
      9 C          10.6926   41.2242   11.1526 C.ar    1  UNL1        0.0149
     10 C          10.0920   40.9607   12.3828 C.ar    1  UNL1        0.0041
     11 C           8.7672   41.3375   12.6024 C.ar    1  UNL1        0.0344
     12 C           8.0517   41.9778   11.5818 C.ar    1  UNL1        0.1332
     13 N           6.6879   42.3843   11.7568 N.pl3   1  UNL1       -0.2782
     14 H           6.5332   43.1867   12.3058 H       1  UNL1        0.1555
     15 S           4.6391   42.3655    9.9318 S.2     1  UNL1       -0.0557
     16 N           5.0182   40.5752   11.6684 N.ar    1  UNL1       -0.2228
     17 C           5.5272   41.7429   11.2148 C.ar    1  UNL1        0.1643
     18 C           3.5561   41.0804    9.9616 C.ar    1  UNL1        0.0293
     19 C           3.9135   40.1972   10.9713 C.ar    1  UNL1        0.1030
     20 C           2.3960   40.9167    9.0477 C.3     1  UNL1        0.0399
     21 S          12.7917   39.5748    8.6965 S.O2    1  UNL1        0.1020
     22 O          11.5984   39.4028    9.5969 O.2     1  UNL1       -0.1408
     23 O          12.7768   38.4914    7.6517 O.2     1  UNL1       -0.1408
     24 N          14.2382   39.4531    9.6550 N.3     1  UNL1       -0.1454
     25 C          13.8841   39.7218   11.0398 C.3     1  UNL1        0.0969
     26 C          14.3962   38.6031   11.9254 C.3     1  UNL1        0.0207
     27 C          15.1386   40.5183    9.2392 C.3     1  UNL1        0.0969
     28 C          16.5609   40.1665    9.6275 C.3     1  UNL1        0.0207
@<TRIPOS>BOND
     1    21    24    1
     2    21     1    1
     3    13    17    1
     4    25    24    1
     5    25    26    1
     6    27    24    1
     7    27    28    1
     8     2     1    1
     9     2     3    1
    10     3     4    1
    11     4     5    1
    12     5     8    1
    13     5     6    1
    14     8     7   ar
    15     9    10   ar
    16    11    12   ar
    17    12    13    1
    18    17    15   ar
    19    18    15   ar
    20    19    16   ar
    21    20    18    1
    22     6     1    1
    23    21    22    2
    24    21    23    2
    25     8     9   ar
    26    10    11   ar
    27    12     7   ar
    28    17    16   ar
    29    18    19   ar
    30    13    14    1
@<TRIPOS>MOLECULE
Molport-047-015-071 MCULE-1233663536 PubChem-155985059
 28 30 0 0 0
SMALL
GASTEIGER

@<TRIPOS>ATOM
      1 N           8.5870   39.9250    7.3404 N.3     1  UNL1       -0.1450
      2 C           8.6748   40.1976    5.8928 C.3     1  UNL1        0.0969
      3 C          10.0268   39.8815    5.2510 C.3     1  UNL1        0.0196
      4 C          11.1462   40.1579    6.2276 C.3     1  UNL1        0.0089
      5 C          11.0214   39.1733    7.3782 C.3     1  UNL1        0.0581
      6 C           9.5802   38.9798    7.8860 C.3     1  UNL1        0.1027
      7 N          13.2217   39.9423    8.1758 N.ar    1  UNL1       -0.2348
      8 C          11.9830   39.4704    8.4843 C.ar    1  UNL1        0.0614
      9 C          11.6299   39.2775    9.8252 C.ar    1  UNL1        0.0149
     10 C          12.5560   39.5693   10.8255 C.ar    1  UNL1        0.0041
     11 C          13.8194   40.0499   10.4818 C.ar    1  UNL1        0.0344
     12 C          14.1454   40.2353    9.1316 C.ar    1  UNL1        0.1332
     13 N          15.4296   40.7274    8.7260 N.pl3   1  UNL1       -0.2782
     14 H          16.2025   40.1442    8.9043 H       1  UNL1        0.1555
     15 S          14.6658   42.7032    6.9820 S.2     1  UNL1       -0.0557
     16 N          16.8171   42.7179    8.2998 N.ar    1  UNL1       -0.2228
     17 C          15.7037   41.9804    8.0879 C.ar    1  UNL1        0.1643
     18 C          15.6909   44.0179    6.7675 C.ar    1  UNL1        0.0293
     19 C          16.8175   43.8611    7.5636 C.ar    1  UNL1        0.1030
     20 C          15.4300   45.1690    5.8649 C.3     1  UNL1        0.0399
     21 S           8.5818   41.4177    8.2404 S.O2    1  UNL1        0.1020
     22 O           8.9558   41.1358    9.6704 O.2     1  UNL1       -0.1408
     23 O           9.5745   42.3871    7.6568 O.2     1  UNL1       -0.1408
     24 N           6.9868   42.1106    8.2053 N.3     1  UNL1       -0.1454
     25 C           7.1239   43.5578    8.2505 C.3     1  UNL1        0.0969
     26 C           6.1563   44.1945    7.2726 C.3     1  UNL1        0.0207
     27 C           6.3033   41.7168    9.4283 C.3     1  UNL1        0.0969
     28 C           4.9353   41.1571    9.0924 C.3     1  UNL1        0.0207
@<TRIPOS>BOND
     1    21    24    1
     2    21     1    1
     3    13    17    1
     4    25    24    1
     5    25    26    1
     6    27    24    1
     7    27    28    1
     8     2     1    1
     9     2     3    1
    10     3     4    1
    11     4     5    1
    12     5     8    1
    13     5     6    1
    14     8     7   ar
    15     9    10   ar
    16    11    12   ar
    17    12    13    1
    18    17    15   ar
    19    18    15   ar
    20    19    16   ar
    21    20    18    1
    22     6     1    1
    23    21    22    2
    24    21    23    2
    25     8     9   ar
    26    10    11   ar
    27    12     7   ar
    28    17    16   ar
    29    18    19   ar
    30    13    14    1
@<TRIPOS>MOLECULE
Molport-047-015-071 MCULE-1233663536 PubChem-155985059
 28 30 0 0 0
SMALL
GASTEIGER

@<TRIPOS>ATOM
      1 N          13.1685   40.5148    8.6332 N.3     1  UNL1       -0.1450
      2 C          12.7836   39.6642    7.4906 C.3     1  UNL1        0.0969
      3 C          11.2813   39.5841    7.2147 C.3     1  UNL1        0.0196
      4 C          10.5078   39.6504    8.5110 C.3     1  UNL1        0.0089
      5 C          10.7198   41.0280    9.1162 C.3     1  UNL1        0.0581
      6 C          12.1773   41.5224    9.0574 C.3     1  UNL1        0.1027
      7 N           8.8246   41.4955   10.6190 N.ar    1  UNL1       -0.2348
      8 C          10.1318   41.1408   10.4866 C.ar    1  UNL1        0.0614
      9 C          10.8986   40.8836   11.6294 C.ar    1  UNL1        0.0149
     10 C          10.3104   40.9982   12.8881 C.ar    1  UNL1        0.0041
     11 C           8.9691   41.3652   12.9957 C.ar    1  UNL1        0.0344
     12 C           8.2248   41.6150   11.8349 C.ar    1  UNL1        0.1332
     13 N           6.8432   41.9943   11.8914 N.pl3   1  UNL1       -0.2782
     14 H           6.5584   42.5088   12.6810 H       1  UNL1        0.1555
     15 S           4.1871   41.8045   11.2297 S.2     1  UNL1       -0.0557
     16 N           6.0895   41.3127    9.6473 N.ar    1  UNL1       -0.2228
     17 C           5.8346   41.7015   10.9170 C.ar    1  UNL1        0.1643
     18 C           3.7861   41.3296    9.6679 C.ar    1  UNL1        0.0293
     19 C           4.9468   41.1024    8.9408 C.ar    1  UNL1        0.1030
     20 C           2.4026   41.1772    9.1477 C.3     1  UNL1        0.0399
     21 S          13.6771   39.5307    9.9790 S.O2    1  UNL1        0.1020
     22 O          15.1501   39.7320   10.2118 O.2     1  UNL1       -0.1408
     23 O          12.9273   39.9167   11.2258 O.2     1  UNL1       -0.1408
     24 N          13.3924   37.8544    9.6120 N.3     1  UNL1       -0.1454
     25 C          12.7157   37.2533   10.7504 C.3     1  UNL1        0.0969
     26 C          11.4769   36.5175   10.2794 C.3     1  UNL1        0.0207
     27 C          14.6862   37.1974    9.4997 C.3     1  UNL1        0.0969
     28 C          14.7997   36.5187    8.1491 C.3     1  UNL1        0.0207
@<TRIPOS>BOND
     1    21    24    1
     2    21     1    1
     3    13    17    1
     4    25    24    1
     5    25    26    1
     6    27    24    1
     7    27    28    1
     8     2     1    1
     9     2     3    1
    10     3     4    1
    11     4     5    1
    12     5     8    1
    13     5     6    1
    14     8     7   ar
    15     9    10   ar
    16    11    12   ar
    17    12    13    1
    18    17    15   ar
    19    18    15   ar
    20    19    16   ar
    21    20    18    1
    22     6     1    1
    23    21    22    2
    24    21    23    2
    25     8     9   ar
    26    10    11   ar
    27    12     7   ar
    28    17    16   ar
    29    18    19   ar
    30    13    14    1
@<TRIPOS>MOLECULE
Molport-047-015-071 MCULE-1233663536 PubChem-155985059
 28 30 0 0 0
SMALL
GASTEIGER

@<TRIPOS>ATOM
      1 N          12.8052   39.2074   10.4578 N.3     1  UNL1       -0.1450
      2 C          13.7224   38.0524   10.5049 C.3     1  UNL1        0.0969
      3 C          15.0593   38.2522    9.7890 C.3     1  UNL1        0.0196
      4 C          14.8746   39.1295    8.5727 C.3     1  UNL1        0.0089
      5 C          14.4762   40.5166    9.0484 C.3     1  UNL1        0.0581
      6 C          13.4221   40.5170   10.1714 C.3     1  UNL1        0.1027
      7 N          12.8412   41.3678    7.4142 N.ar    1  UNL1       -0.2348
      8 C          14.1056   41.4190    7.9150 C.ar    1  UNL1        0.0614
      9 C          15.0315   42.3148    7.3670 C.ar    1  UNL1        0.0149
     10 C          14.6437   43.1400    6.3124 C.ar    1  UNL1        0.0041
     11 C          13.3421   43.0660    5.8168 C.ar    1  UNL1        0.0344
     12 C          12.4354   42.1614    6.3855 C.ar    1  UNL1        0.1332
     13 N          11.0865   42.0474    5.9131 N.pl3   1  UNL1       -0.2782
     14 H          10.5140   42.8418    6.0155 H       1  UNL1        0.1555
     15 S          11.3667   39.6844    4.5470 S.2     1  UNL1       -0.0557
     16 N           9.1559   40.6551    5.2781 N.ar    1  UNL1       -0.2228
     17 C          10.4861   40.8963    5.3074 C.ar    1  UNL1        0.1643
     18 C           9.9801   38.8146    4.1649 C.ar    1  UNL1        0.0293
     19 C           8.8642   39.4905    4.6397 C.ar    1  UNL1        0.1030
     20 C           9.9546   37.5222    3.4322 C.3     1  UNL1        0.0399
     21 S          11.4807   38.8874    9.3709 S.O2    1  UNL1        0.1020
     22 O          11.8737   39.2946    7.9767 O.2     1  UNL1       -0.1408
     23 O          11.1397   37.4213    9.3748 O.2     1  UNL1       -0.1408
     24 N          10.0942   39.8189    9.8561 N.3     1  UNL1       -0.1454
     25 C           9.6356   40.5772    8.7028 C.3     1  UNL1        0.0969
     26 C           8.2674   41.1644    8.9874 C.3     1  UNL1        0.0207
     27 C          10.5347   40.7898   10.8468 C.3     1  UNL1        0.0969
     28 C          10.7505   42.1356   10.1834 C.3     1  UNL1        0.0207
@<TRIPOS>BOND
     1    21    24    1
     2    21     1    1
     3    13    17    1
     4    25    24    1
     5    25    26    1
     6    27    24    1
     7    27    28    1
     8     2     1    1
     9     2     3    1
    10     3     4    1
    11     4     5    1
    12     5     8    1
    13     5     6    1
    14     8     7   ar
    15     9    10   ar
    16    11    12   ar
    17    12    13    1
    18    17    15   ar
    19    18    15   ar
    20    19    16   ar
    21    20    18    1
    22     6     1    1
    23    21    22    2
    24    21    23    2
    25     8     9   ar
    26    10    11   ar
    27    12     7   ar
    28    17    16   ar
    29    18    19   ar
    30    13    14    1
