@<TRIPOS>MOLECULE
MolPort-007-714-547 ChemDiv-E002-1882 MCULE-4277690371 PubChem-22510851 ZINC000006780255 ZINC06780255
 31 33 0 0 0
SMALL
GASTEIGER

@<TRIPOS>ATOM
      1 C           7.2015   41.3232    9.5676 C.2     1  UNL1        0.3096
      2 O           7.5544   42.0140   10.5613 O.2     1  UNL1       -0.2521
      3 N           5.8250   40.9790    9.3656 N.am    1  UNL1       -0.2680
      4 N           8.1717   40.8676    8.6196 N.am    1  UNL1       -0.2468
      5 H           5.6188   40.4370    8.5701 H       1  UNL1        0.1564
      6 H           7.8479   40.3299    7.8612 H       1  UNL1        0.1584
      7 C           2.5588   41.9915   11.8862 C.ar    1  UNL1        0.0757
      8 C           3.3973   40.9103   12.1915 C.ar    1  UNL1        0.0077
      9 C           4.4683   40.5887   11.3529 C.ar    1  UNL1        0.0149
     10 C           4.7162   41.3410   10.2002 C.ar    1  UNL1        0.0516
     11 C           3.8774   42.4229    9.8945 C.ar    1  UNL1        0.0149
     12 C           2.8060   42.7455   10.7320 C.ar    1  UNL1        0.0077
     13 C           1.4292   42.3348   12.7652 C.2     1  UNL1        0.3412
     14 O           0.5650   43.1729   12.3853 O.2     1  UNL1       -0.2449
     15 O           1.3193   41.7299   14.0199 O.3     1  UNL1       -0.4454
     16 C           0.5560   43.1401   15.8016 C.3     1  UNL1        0.0513
     17 C           0.2207   41.9839   14.8827 C.3     1  UNL1        0.2089
     18 C           9.5761   41.1329    8.6886 C.ar    1  UNL1        0.1904
     19 C          11.9724   41.1117    8.7522 C.ar    1  UNL1        0.1905
     20 N          10.1124   42.3633    8.8441 N.ar    1  UNL1       -0.1240
     21 N          11.4439   42.3519    8.8726 N.ar    1  UNL1       -0.1239
     22 S          10.7605   39.9454    8.5713 S.2     1  UNL1       -0.0151
     23 N          13.3906   40.8649    8.6947 N.pl3   1  UNL1       -0.2659
     24 C          14.0930   40.1244    9.7148 C.ar    1  UNL1        0.0531
     25 C          13.4453   39.7383   10.9000 C.ar    1  UNL1        0.0149
     26 C          14.1378   39.0459   11.8972 C.ar    1  UNL1        0.0013
     27 C          15.4894   38.7392   11.7246 C.ar    1  UNL1        0.0001
     28 C          16.1493   39.1279   10.5565 C.ar    1  UNL1        0.0013
     29 C          15.4560   39.8200    9.5595 C.ar    1  UNL1        0.0149
     30 C          14.1351   41.3806    7.5488 C.3     1  UNL1        0.0975
     31 C          13.9665   42.8858    7.4501 C.3     1  UNL1        0.0236
@<TRIPOS>BOND
     1    16    17    1
     2    17    15    1
     3    13    15    1
     4    13     7    1
     5     8     9   ar
     6    10     3    1
     7    10    11   ar
     8     1     4   am
     9    18    22   ar
    10    19    22   ar
    11    19    23    1
    12    30    23    1
    13    30    31    1
    14    25    26   ar
    15    27    28   ar
    16    29    24   ar
    17    12     7   ar
    18     3     1   am
    19     4    18    1
    20    20    21   ar
    21    23    24    1
    22    13    14    2
    23     7     8   ar
    24     9    10   ar
    25     1     2    2
    26    18    20   ar
    27    19    21   ar
    28    24    25   ar
    29    26    27   ar
    30    28    29   ar
    31    11    12   ar
    32     3     5    1
    33     4     6    1
@<TRIPOS>MOLECULE
MolPort-007-714-547 ChemDiv-E002-1882 MCULE-4277690371 PubChem-22510851 ZINC000006780255 ZINC06780255
 31 33 0 0 0
SMALL
GASTEIGER

@<TRIPOS>ATOM
      1 C          10.2349   42.2369    7.2827 C.2     1  UNL1        0.3096
      2 O          10.4224   42.4075    8.5176 O.2     1  UNL1       -0.2521
      3 N           8.9084   42.1916    6.7419 N.am    1  UNL1       -0.2680
      4 N          11.3464   42.0841    6.3946 N.am    1  UNL1       -0.2468
      5 H           8.8336   42.0547    5.7699 H       1  UNL1        0.1564
      6 H          11.1494   41.9517    5.4392 H       1  UNL1        0.1584
      7 C           5.2567   42.5070    8.8893 C.ar    1  UNL1        0.0757
      8 C           5.7550   41.2579    8.4936 C.ar    1  UNL1        0.0077
      9 C           6.9581   41.1692    7.7875 C.ar    1  UNL1        0.0149
     10 C           7.6784   42.3245    7.4676 C.ar    1  UNL1        0.0516
     11 C           7.1800   43.5745    7.8634 C.ar    1  UNL1        0.0149
     12 C           5.9772   43.6647    8.5694 C.ar    1  UNL1        0.0077
     13 C           3.9903   42.6067    9.6328 C.2     1  UNL1        0.3412
     14 O           2.9059   42.7879    9.0124 O.2     1  UNL1       -0.2449
     15 O           3.9948   42.5006   11.0261 O.3     1  UNL1       -0.4454
     16 C           3.6208   40.1330   11.0090 C.3     1  UNL1        0.0513
     17 C           4.3279   41.2884   11.6861 C.3     1  UNL1        0.2089
     18 C          12.7221   42.1088    6.7876 C.ar    1  UNL1        0.1904
     19 C          14.8868   41.8570    7.7861 C.ar    1  UNL1        0.1905
     20 N          13.6823   42.8191    6.1557 N.ar    1  UNL1       -0.1240
     21 N          14.8861   42.6736    6.7067 N.ar    1  UNL1       -0.1239
     22 S          13.3403   41.2419    8.0887 S.2     1  UNL1       -0.0151
     23 N          16.0856   41.5050    8.5034 N.pl3   1  UNL1       -0.2659
     24 C          16.1080   40.4918    9.5307 C.ar    1  UNL1        0.0531
     25 C          14.9136   39.9756   10.0599 C.ar    1  UNL1        0.0149
     26 C          14.9407   39.0149   11.0747 C.ar    1  UNL1        0.0013
     27 C          16.1633   38.5654   11.5785 C.ar    1  UNL1        0.0001
     28 C          17.3586   39.0792   11.0703 C.ar    1  UNL1        0.0013
     29 C          17.3307   40.0397   10.0552 C.ar    1  UNL1        0.0149
     30 C          17.3237   42.2007    8.1619 C.3     1  UNL1        0.0975
     31 C          17.3822   43.5420    8.8698 C.3     1  UNL1        0.0236
@<TRIPOS>BOND
     1    16    17    1
     2    17    15    1
     3    13    15    1
     4    13     7    1
     5     8     9   ar
     6    10     3    1
     7    10    11   ar
     8     1     4   am
     9    18    22   ar
    10    19    22   ar
    11    19    23    1
    12    30    23    1
    13    30    31    1
    14    25    26   ar
    15    27    28   ar
    16    29    24   ar
    17    12     7   ar
    18     3     1   am
    19     4    18    1
    20    20    21   ar
    21    23    24    1
    22    13    14    2
    23     7     8   ar
    24     9    10   ar
    25     1     2    2
    26    18    20   ar
    27    19    21   ar
    28    24    25   ar
    29    26    27   ar
    30    28    29   ar
    31    11    12   ar
    32     3     5    1
    33     4     6    1
@<TRIPOS>MOLECULE
MolPort-007-714-547 ChemDiv-E002-1882 MCULE-4277690371 PubChem-22510851 ZINC000006780255 ZINC06780255
 31 33 0 0 0
SMALL
GASTEIGER

@<TRIPOS>ATOM
      1 C           5.5334   41.3755   10.2956 C.2     1  UNL1        0.3096
      2 O           5.8891   42.3241   11.0459 O.2     1  UNL1       -0.2521
      3 N           6.4746   40.7396    9.4216 N.am    1  UNL1       -0.2680
      4 N           4.1788   40.9146   10.3018 N.am    1  UNL1       -0.2468
      5 H           6.1302   40.0062    8.8623 H       1  UNL1        0.1564
      6 H           3.9490   40.1723    9.6973 H       1  UNL1        0.1584
      7 C          10.5909   41.6595    8.9153 C.ar    1  UNL1        0.0757
      8 C           9.8398   41.1123    7.8657 C.ar    1  UNL1        0.0077
      9 C           8.4861   40.8145    8.0467 C.ar    1  UNL1        0.0149
     10 C           7.8653   41.0588    9.2759 C.ar    1  UNL1        0.0516
     11 C           8.6166   41.6064   10.3262 C.ar    1  UNL1        0.0149
     12 C           9.9701   41.9044   10.1468 C.ar    1  UNL1        0.0077
     13 C          12.0167   41.9748    8.7309 C.2     1  UNL1        0.3412
     14 O          12.8984   41.2614    9.2852 O.2     1  UNL1       -0.2449
     15 O          12.3883   43.0661    7.9413 O.3     1  UNL1       -0.4454
     16 C          13.6101   42.7625    5.9015 C.3     1  UNL1        0.0513
     17 C          13.6794   43.1672    7.3592 C.3     1  UNL1        0.2089
     18 C           3.1324   41.4489   11.1186 C.ar    1  UNL1        0.1904
     19 C           1.5030   42.0035   12.7870 C.ar    1  UNL1        0.1905
     20 N           2.3611   42.5037   10.7751 N.ar    1  UNL1       -0.1240
     21 N           1.4604   42.8158   11.7053 N.ar    1  UNL1       -0.1239
     22 S           2.7246   40.8435   12.6331 S.2     1  UNL1       -0.0151
     23 N           0.6640   42.1909   13.9431 N.pl3   1  UNL1       -0.2659
     24 C           0.8283   43.2999   14.8517 C.ar    1  UNL1        0.0531
     25 C           1.0334   43.0825   16.2243 C.ar    1  UNL1        0.0149
     26 C           1.1637   44.1603   17.1046 C.ar    1  UNL1        0.0013
     27 C           1.0814   45.4689   16.6234 C.ar    1  UNL1        0.0001
     28 C           0.8653   45.6997   15.2629 C.ar    1  UNL1        0.0013
     29 C           0.7354   44.6213   14.3832 C.ar    1  UNL1        0.0149
     30 C          -0.3985   41.2194   14.1896 C.3     1  UNL1        0.0975
     31 C          -1.7315   41.7715   13.7183 C.3     1  UNL1        0.0236
@<TRIPOS>BOND
     1    16    17    1
     2    17    15    1
     3    13    15    1
     4    13     7    1
     5     8     9   ar
     6    10     3    1
     7    10    11   ar
     8     1     4   am
     9    18    22   ar
    10    19    22   ar
    11    19    23    1
    12    30    23    1
    13    30    31    1
    14    25    26   ar
    15    27    28   ar
    16    29    24   ar
    17    12     7   ar
    18     3     1   am
    19     4    18    1
    20    20    21   ar
    21    23    24    1
    22    13    14    2
    23     7     8   ar
    24     9    10   ar
    25     1     2    2
    26    18    20   ar
    27    19    21   ar
    28    24    25   ar
    29    26    27   ar
    30    28    29   ar
    31    11    12   ar
    32     3     5    1
    33     4     6    1
@<TRIPOS>MOLECULE
MolPort-007-714-547 ChemDiv-E002-1882 MCULE-4277690371 PubChem-22510851 ZINC000006780255 ZINC06780255
 31 33 0 0 0
SMALL
GASTEIGER

@<TRIPOS>ATOM
      1 C          10.2924   42.1909    7.1745 C.2     1  UNL1        0.3096
      2 O          10.4336   42.5254    8.3817 O.2     1  UNL1       -0.2521
      3 N           8.9882   42.0956    6.5878 N.am    1  UNL1       -0.2680
      4 N          11.4351   41.8983    6.3645 N.am    1  UNL1       -0.2468
      5 H           8.9498   41.8285    5.6410 H       1  UNL1        0.1564
      6 H          11.2740   41.6400    5.4283 H       1  UNL1        0.1584
      7 C           5.2701   42.9166    8.4713 C.ar    1  UNL1        0.0757
      8 C           5.8948   43.8745    7.6605 C.ar    1  UNL1        0.0077
      9 C           7.1182   43.5905    7.0469 C.ar    1  UNL1        0.0149
     10 C           7.7333   42.3485    7.2345 C.ar    1  UNL1        0.0516
     11 C           7.1084   41.3899    8.0458 C.ar    1  UNL1        0.0149
     12 C           5.8852   41.6725    8.6599 C.ar    1  UNL1        0.0077
     13 C           3.9820   43.2100    9.1202 C.2     1  UNL1        0.3412
     14 O           3.2889   44.1918    8.7338 O.2     1  UNL1       -0.2449
     15 O           3.5317   42.3982   10.1646 O.3     1  UNL1       -0.4454
     16 C           3.8349   40.2391   11.1605 C.3     1  UNL1        0.0513
     17 C           3.2783   41.0130    9.9837 C.3     1  UNL1        0.2089
     18 C          12.7939   41.9521    6.8099 C.ar    1  UNL1        0.1904
     19 C          14.9272   41.7339    7.8813 C.ar    1  UNL1        0.1905
     20 N          13.7539   42.7112    6.2373 N.ar    1  UNL1       -0.1240
     21 N          14.9406   42.5846    6.8287 N.ar    1  UNL1       -0.1239
     22 S          13.3908   41.0627    8.1058 S.2     1  UNL1       -0.0151
     23 N          16.1092   41.3955    8.6322 N.pl3   1  UNL1       -0.2659
     24 C          16.1101   40.3949    9.6720 C.ar    1  UNL1        0.0531
     25 C          17.3105   39.8110   10.1092 C.ar    1  UNL1        0.0149
     26 C          17.3034   38.8219   11.0967 C.ar    1  UNL1        0.0013
     27 C          16.0940   38.3986   11.6524 C.ar    1  UNL1        0.0001
     28 C          14.8917   38.9615   11.2183 C.ar    1  UNL1        0.0013
     29 C          14.8997   39.9509   10.2309 C.ar    1  UNL1        0.0149
     30 C          17.3528   42.0919    8.3128 C.3     1  UNL1        0.0975
     31 C          17.3041   43.5157    8.8364 C.3     1  UNL1        0.0236
@<TRIPOS>BOND
     1    16    17    1
     2    17    15    1
     3    13    15    1
     4    13     7    1
     5     8     9   ar
     6    10     3    1
     7    10    11   ar
     8     1     4   am
     9    18    22   ar
    10    19    22   ar
    11    19    23    1
    12    30    23    1
    13    30    31    1
    14    25    26   ar
    15    27    28   ar
    16    29    24   ar
    17    12     7   ar
    18     3     1   am
    19     4    18    1
    20    20    21   ar
    21    23    24    1
    22    13    14    2
    23     7     8   ar
    24     9    10   ar
    25     1     2    2
    26    18    20   ar
    27    19    21   ar
    28    24    25   ar
    29    26    27   ar
    30    28    29   ar
    31    11    12   ar
    32     3     5    1
    33     4     6    1
@<TRIPOS>MOLECULE
MolPort-007-714-547 ChemDiv-E002-1882 MCULE-4277690371 PubChem-22510851 ZINC000006780255 ZINC06780255
 31 33 0 0 0
SMALL
GASTEIGER

@<TRIPOS>ATOM
      1 C          10.3879   42.0884    7.3105 C.2     1  UNL1        0.3096
      2 O          10.5222   42.3852    8.5284 O.2     1  UNL1       -0.2521
      3 N           9.0856   41.9756    6.7228 N.am    1  UNL1       -0.2680
      4 N          11.5366   41.8572    6.4893 N.am    1  UNL1       -0.2468
      5 H           9.0525   41.7402    5.7675 H       1  UNL1        0.1564
      6 H          11.3807   41.6267    5.5450 H       1  UNL1        0.1584
      7 C           5.3498   42.4724    8.6833 C.ar    1  UNL1        0.0757
      8 C           5.9452   41.2079    8.5756 C.ar    1  UNL1        0.0077
      9 C           7.1748   41.0593    7.9277 C.ar    1  UNL1        0.0149
     10 C           7.8254   42.1695    7.3797 C.ar    1  UNL1        0.0516
     11 C           7.2299   43.4349    7.4873 C.ar    1  UNL1        0.0149
     12 C           6.0004   43.5849    8.1347 C.ar    1  UNL1        0.0077
     13 C           4.0550   42.6351    9.3641 C.2     1  UNL1        0.3412
     14 O           3.7350   41.8590   10.3069 O.2     1  UNL1       -0.2449
     15 O           3.1835   43.6503    8.9615 O.3     1  UNL1       -0.4454
     16 C           2.7179   45.2960    7.2820 C.3     1  UNL1        0.0513
     17 C           3.6542   44.8620    8.3904 C.3     1  UNL1        0.2089
     18 C          12.8943   41.9350    6.9343 C.ar    1  UNL1        0.1904
     19 C          15.0207   41.7906    8.0316 C.ar    1  UNL1        0.1905
     20 N          13.8662   42.6253    6.2982 N.ar    1  UNL1       -0.1240
     21 N          15.0489   42.5394    6.9045 N.ar    1  UNL1       -0.1239
     22 S          13.4749   41.1627    8.3102 S.2     1  UNL1       -0.0151
     23 N          16.1955   41.5086    8.8164 N.pl3   1  UNL1       -0.2659
     24 C          16.2744   40.3893    9.7238 C.ar    1  UNL1        0.0531
     25 C          17.5158   39.8380   10.0818 C.ar    1  UNL1        0.0149
     26 C          17.5854   38.7361   10.9387 C.ar    1  UNL1        0.0013
     27 C          16.4131   38.1667   11.4408 C.ar    1  UNL1        0.0001
     28 C          15.1713   38.6968   11.0833 C.ar    1  UNL1        0.0013
     29 C          15.1025   39.7991   10.2265 C.ar    1  UNL1        0.0149
     30 C          17.3501   42.3915    8.6722 C.3     1  UNL1        0.0975
     31 C          16.9163   43.7319    8.1077 C.3     1  UNL1        0.0236
@<TRIPOS>BOND
     1    16    17    1
     2    17    15    1
     3    13    15    1
     4    13     7    1
     5     8     9   ar
     6    10     3    1
     7    10    11   ar
     8     1     4   am
     9    18    22   ar
    10    19    22   ar
    11    19    23    1
    12    30    23    1
    13    30    31    1
    14    25    26   ar
    15    27    28   ar
    16    29    24   ar
    17    12     7   ar
    18     3     1   am
    19     4    18    1
    20    20    21   ar
    21    23    24    1
    22    13    14    2
    23     7     8   ar
    24     9    10   ar
    25     1     2    2
    26    18    20   ar
    27    19    21   ar
    28    24    25   ar
    29    26    27   ar
    30    28    29   ar
    31    11    12   ar
    32     3     5    1
    33     4     6    1
@<TRIPOS>MOLECULE
MolPort-007-714-547 ChemDiv-E002-1882 MCULE-4277690371 PubChem-22510851 ZINC000006780255 ZINC06780255
 31 33 0 0 0
SMALL
GASTEIGER

@<TRIPOS>ATOM
      1 C           7.4618   41.3367    9.1074 C.2     1  UNL1        0.3096
      2 O           7.8799   41.3954   10.2953 O.2     1  UNL1       -0.2521
      3 N           6.0625   41.4444    8.8166 N.am    1  UNL1       -0.2680
      4 N           8.3791   41.1603    8.0235 N.am    1  UNL1       -0.2468
      5 H           5.8045   41.3896    7.8681 H       1  UNL1        0.1564
      6 H           8.0046   41.1189    7.1139 H       1  UNL1        0.1584
      7 C           2.9411   41.9164   11.6591 C.ar    1  UNL1        0.0757
      8 C           3.9362   40.9449   11.8354 C.ar    1  UNL1        0.0077
      9 C           4.9573   40.8008   10.8918 C.ar    1  UNL1        0.0149
     10 C           4.9985   41.6235    9.7615 C.ar    1  UNL1        0.0516
     11 C           4.0030   42.5957    9.5849 C.ar    1  UNL1        0.0149
     12 C           2.9814   42.7408   10.5274 C.ar    1  UNL1        0.0077
     13 C           1.8631   42.0726   12.6491 C.2     1  UNL1        0.3412
     14 O           1.7652   41.2599   13.6100 O.2     1  UNL1       -0.2449
     15 O           0.9503   43.1226   12.5193 O.3     1  UNL1       -0.4454
     16 C          -1.0530   42.8213   13.8005 C.3     1  UNL1        0.0513
     17 C           0.2195   43.6241   13.6285 C.3     1  UNL1        0.2089
     18 C           9.7984   41.0395    8.1591 C.ar    1  UNL1        0.1904
     19 C          12.0735   40.4444    8.6243 C.ar    1  UNL1        0.1905
     20 N          10.6898   41.9201    7.6536 N.ar    1  UNL1       -0.1240
     21 N          11.9540   41.5856    7.9065 N.ar    1  UNL1       -0.1239
     22 S          10.5583   39.7707    8.9587 S.2     1  UNL1       -0.0151
     23 N          13.3458   39.8585    8.9611 N.pl3   1  UNL1       -0.2659
     24 C          13.5313   38.4352    9.1109 C.ar    1  UNL1        0.0531
     25 C          12.5318   37.6351    9.6888 C.ar    1  UNL1        0.0149
     26 C          12.7277   36.2616    9.8575 C.ar    1  UNL1        0.0013
     27 C          13.9299   35.6733    9.4582 C.ar    1  UNL1        0.0001
     28 C          14.9373   36.4590    8.8936 C.ar    1  UNL1        0.0013
     29 C          14.7405   37.8325    8.7248 C.ar    1  UNL1        0.0149
     30 C          14.4886   40.7491    9.1459 C.3     1  UNL1        0.0975
     31 C          14.7904   41.4874    7.8545 C.3     1  UNL1        0.0236
@<TRIPOS>BOND
     1    16    17    1
     2    17    15    1
     3    13    15    1
     4    13     7    1
     5     8     9   ar
     6    10     3    1
     7    10    11   ar
     8     1     4   am
     9    18    22   ar
    10    19    22   ar
    11    19    23    1
    12    30    23    1
    13    30    31    1
    14    25    26   ar
    15    27    28   ar
    16    29    24   ar
    17    12     7   ar
    18     3     1   am
    19     4    18    1
    20    20    21   ar
    21    23    24    1
    22    13    14    2
    23     7     8   ar
    24     9    10   ar
    25     1     2    2
    26    18    20   ar
    27    19    21   ar
    28    24    25   ar
    29    26    27   ar
    30    28    29   ar
    31    11    12   ar
    32     3     5    1
    33     4     6    1
@<TRIPOS>MOLECULE
MolPort-007-714-547 ChemDiv-E002-1882 MCULE-4277690371 PubChem-22510851 ZINC000006780255 ZINC06780255
 31 33 0 0 0
SMALL
GASTEIGER

@<TRIPOS>ATOM
      1 C           9.3318   42.0260    6.8709 C.2     1  UNL1        0.3096
      2 O           9.5753   42.0437    8.1077 O.2     1  UNL1       -0.2521
      3 N           7.9821   41.9938    6.3898 N.am    1  UNL1       -0.2680
      4 N          10.4017   42.0371    5.9209 N.am    1  UNL1       -0.2468
      5 H           7.8632   41.9805    5.4126 H       1  UNL1        0.1564
      6 H          10.1614   42.0208    4.9663 H       1  UNL1        0.1584
      7 C           4.4394   42.0285    8.7337 C.ar    1  UNL1        0.0757
      8 C           5.0298   43.2242    8.3014 C.ar    1  UNL1        0.0077
      9 C           6.1956   43.1976    7.5307 C.ar    1  UNL1        0.0149
     10 C           6.7864   41.9789    7.1818 C.ar    1  UNL1        0.0516
     11 C           6.1958   40.7823    7.6142 C.ar    1  UNL1        0.0149
     12 C           5.0303   40.8074    8.3850 C.ar    1  UNL1        0.0077
     13 C           3.2120   42.0502    9.5458 C.2     1  UNL1        0.3412
     14 O           2.6924   43.1522    9.8763 O.2     1  UNL1       -0.2449
     15 O           2.6267   40.8471    9.9488 O.3     1  UNL1       -0.4454
     16 C           3.7163   40.6956   12.0784 C.3     1  UNL1        0.0513
     17 C           3.2837   39.9510   10.8326 C.3     1  UNL1        0.2089
     18 C          11.7937   42.0702    6.2507 C.ar    1  UNL1        0.1904
     19 C          13.9938   41.8821    7.1837 C.ar    1  UNL1        0.1905
     20 N          12.7420   42.6652    5.4942 N.ar    1  UNL1       -0.1240
     21 N          13.9652   42.5547    6.0095 N.ar    1  UNL1       -0.1239
     22 S          12.4476   41.3572    7.6257 S.2     1  UNL1       -0.0151
     23 N          15.2143   41.5881    7.8904 N.pl3   1  UNL1       -0.2659
     24 C          16.3964   42.4077    7.7752 C.ar    1  UNL1        0.0531
     25 C          17.6273   41.9743    8.2950 C.ar    1  UNL1        0.0149
     26 C          18.7630   42.7839    8.2060 C.ar    1  UNL1        0.0013
     27 C          18.6789   44.0412    7.6036 C.ar    1  UNL1        0.0001
     28 C          17.4586   44.4903    7.0936 C.ar    1  UNL1        0.0013
     29 C          16.3233   43.6798    7.1827 C.ar    1  UNL1        0.0149
     30 C          15.2416   40.4173    8.7633 C.3     1  UNL1        0.0975
     31 C          16.2607   40.6143    9.8706 C.3     1  UNL1        0.0236
@<TRIPOS>BOND
     1    16    17    1
     2    17    15    1
     3    13    15    1
     4    13     7    1
     5     8     9   ar
     6    10     3    1
     7    10    11   ar
     8     1     4   am
     9    18    22   ar
    10    19    22   ar
    11    19    23    1
    12    30    23    1
    13    30    31    1
    14    25    26   ar
    15    27    28   ar
    16    29    24   ar
    17    12     7   ar
    18     3     1   am
    19     4    18    1
    20    20    21   ar
    21    23    24    1
    22    13    14    2
    23     7     8   ar
    24     9    10   ar
    25     1     2    2
    26    18    20   ar
    27    19    21   ar
    28    24    25   ar
    29    26    27   ar
    30    28    29   ar
    31    11    12   ar
    32     3     5    1
    33     4     6    1
@<TRIPOS>MOLECULE
MolPort-007-714-547 ChemDiv-E002-1882 MCULE-4277690371 PubChem-22510851 ZINC000006780255 ZINC06780255
 31 33 0 0 0
SMALL
GASTEIGER

@<TRIPOS>ATOM
      1 C           8.4032   42.0090    8.5370 C.2     1  UNL1        0.3096
      2 O           8.7016   41.2740    9.5168 O.2     1  UNL1       -0.2521
      3 N           7.0847   42.5550    8.4050 N.am    1  UNL1       -0.2680
      4 N           9.3780   42.3124    7.5345 N.am    1  UNL1       -0.2468
      5 H           6.9190   43.1198    7.6158 H       1  UNL1        0.1564
      6 H           9.0970   42.8892    6.7877 H       1  UNL1        0.1584
      7 C           3.8599   41.9435   11.1018 C.ar    1  UNL1        0.0757
      8 C           5.0846   41.2853   11.2810 C.ar    1  UNL1        0.0077
      9 C           6.1371   41.4961   10.3856 C.ar    1  UNL1        0.0149
     10 C           5.9811   42.3655    9.3012 C.ar    1  UNL1        0.0516
     11 C           4.7558   43.0242    9.1217 C.ar    1  UNL1        0.0149
     12 C           3.7026   42.8143   10.0161 C.ar    1  UNL1        0.0077
     13 C           2.7479   41.7252   12.0411 C.2     1  UNL1        0.3412
     14 O           2.7470   40.7125   12.7947 O.2     1  UNL1       -0.2449
     15 O           1.6953   42.6426   12.0936 O.3     1  UNL1       -0.4454
     16 C          -0.2794   42.3119   13.4114 C.3     1  UNL1        0.0513
     17 C           1.0679   42.9970   13.3169 C.3     1  UNL1        0.2089
     18 C          10.7296   41.8425    7.5331 C.ar    1  UNL1        0.1904
     19 C          13.0532   41.3657    7.8793 C.ar    1  UNL1        0.1905
     20 N          11.2036   40.8885    6.7020 N.ar    1  UNL1       -0.1240
     21 N          12.4930   40.6191    6.8991 N.ar    1  UNL1       -0.1239
     22 S          11.9181   42.4055    8.5806 S.2     1  UNL1       -0.0151
     23 N          14.4191   41.2022    8.3072 N.pl3   1  UNL1       -0.2659
     24 C          15.4692   42.1138    7.9217 C.ar    1  UNL1        0.0531
     25 C          15.2462   43.0984    6.9451 C.ar    1  UNL1        0.0149
     26 C          16.2747   43.9606    6.5548 C.ar    1  UNL1        0.0013
     27 C          17.5416   43.8422    7.1308 C.ar    1  UNL1        0.0001
     28 C          17.7809   42.8595    8.0941 C.ar    1  UNL1        0.0013
     29 C          16.7517   41.9979    8.4841 C.ar    1  UNL1        0.0149
     30 C          14.7402   40.0710    9.1737 C.3     1  UNL1        0.0975
     31 C          13.7249   39.9682   10.2972 C.3     1  UNL1        0.0236
@<TRIPOS>BOND
     1    16    17    1
     2    17    15    1
     3    13    15    1
     4    13     7    1
     5     8     9   ar
     6    10     3    1
     7    10    11   ar
     8     1     4   am
     9    18    22   ar
    10    19    22   ar
    11    19    23    1
    12    30    23    1
    13    30    31    1
    14    25    26   ar
    15    27    28   ar
    16    29    24   ar
    17    12     7   ar
    18     3     1   am
    19     4    18    1
    20    20    21   ar
    21    23    24    1
    22    13    14    2
    23     7     8   ar
    24     9    10   ar
    25     1     2    2
    26    18    20   ar
    27    19    21   ar
    28    24    25   ar
    29    26    27   ar
    30    28    29   ar
    31    11    12   ar
    32     3     5    1
    33     4     6    1
@<TRIPOS>MOLECULE
MolPort-007-714-547 ChemDiv-E002-1882 MCULE-4277690371 PubChem-22510851 ZINC000006780255 ZINC06780255
 31 33 0 0 0
SMALL
GASTEIGER

@<TRIPOS>ATOM
      1 C           7.3958   41.3353    9.6117 C.2     1  UNL1        0.3096
      2 O           7.7038   42.1084   10.5586 O.2     1  UNL1       -0.2521
      3 N           6.0380   40.9203    9.4162 N.am    1  UNL1       -0.2680
      4 N           8.3992   40.8552    8.7116 N.am    1  UNL1       -0.2468
      5 H           5.8671   40.3155    8.6584 H       1  UNL1        0.1564
      6 H           8.1100   40.2525    7.9889 H       1  UNL1        0.1584
      7 C           2.6919   41.9691   11.8141 C.ar    1  UNL1        0.0757
      8 C           3.5622   40.9404   12.2009 C.ar    1  UNL1        0.0077
      9 C           4.6593   40.6061   11.4019 C.ar    1  UNL1        0.0149
     10 C           4.9017   41.2932   10.2081 C.ar    1  UNL1        0.0516
     11 C           4.0310   42.3225    9.8209 C.ar    1  UNL1        0.0149
     12 C           2.9337   42.6578   10.6187 C.ar    1  UNL1        0.0077
     13 C           1.5348   42.3254   12.6512 C.2     1  UNL1        0.3412
     14 O           0.8373   43.3384   12.3668 O.2     1  UNL1       -0.2449
     15 O           1.2136   41.5384   13.7602 O.3     1  UNL1       -0.4454
     16 C           0.4329   42.9202   15.5566 C.3     1  UNL1        0.0513
     17 C           0.0871   41.8171   14.5782 C.3     1  UNL1        0.2089
     18 C           9.7902   41.1834    8.7804 C.ar    1  UNL1        0.1904
     19 C          12.1713   41.3817    8.5870 C.ar    1  UNL1        0.1905
     20 N          10.3032   42.1704    9.5475 N.ar    1  UNL1       -0.1240
     21 N          11.6253   42.2847    9.4347 N.ar    1  UNL1       -0.1239
     22 S          10.9842   40.3911    7.9010 S.2     1  UNL1       -0.0151
     23 N          13.5749   41.3581    8.2628 N.pl3   1  UNL1       -0.2659
     24 C          14.1886   42.3323    7.3930 C.ar    1  UNL1        0.0531
     25 C          13.4545   42.9418    6.3620 C.ar    1  UNL1        0.0149
     26 C          14.0611   43.8637    5.5044 C.ar    1  UNL1        0.0013
     27 C          15.4122   44.1804    5.6623 C.ar    1  UNL1        0.0001
     28 C          16.1575   43.5726    6.6753 C.ar    1  UNL1        0.0013
     29 C          15.5500   42.6510    7.5328 C.ar    1  UNL1        0.0149
     30 C          14.4017   40.3079    8.8517 C.3     1  UNL1        0.0975
     31 C          13.8844   39.9476   10.2324 C.3     1  UNL1        0.0236
@<TRIPOS>BOND
     1    16    17    1
     2    17    15    1
     3    13    15    1
     4    13     7    1
     5     8     9   ar
     6    10     3    1
     7    10    11   ar
     8     1     4   am
     9    18    22   ar
    10    19    22   ar
    11    19    23    1
    12    30    23    1
    13    30    31    1
    14    25    26   ar
    15    27    28   ar
    16    29    24   ar
    17    12     7   ar
    18     3     1   am
    19     4    18    1
    20    20    21   ar
    21    23    24    1
    22    13    14    2
    23     7     8   ar
    24     9    10   ar
    25     1     2    2
    26    18    20   ar
    27    19    21   ar
    28    24    25   ar
    29    26    27   ar
    30    28    29   ar
    31    11    12   ar
    32     3     5    1
    33     4     6    1
@<TRIPOS>MOLECULE
MolPort-007-714-547 ChemDiv-E002-1882 MCULE-4277690371 PubChem-22510851 ZINC000006780255 ZINC06780255
 31 33 0 0 0
SMALL
GASTEIGER

@<TRIPOS>ATOM
      1 C           9.8752   41.1234    8.6891 C.2     1  UNL1        0.3096
      2 O           9.7753   42.2588    8.1503 O.2     1  UNL1       -0.2521
      3 N           8.7244   40.4682    9.2373 N.am    1  UNL1       -0.2680
      4 N          11.1436   40.4655    8.7645 N.am    1  UNL1       -0.2468
      5 H           8.8731   39.5840    9.6439 H       1  UNL1        0.1564
      6 H          11.1713   39.5809    9.1959 H       1  UNL1        0.1584
      7 C           4.7273   41.9068    9.2215 C.ar    1  UNL1        0.0757
      8 C           5.2324   41.1688    8.1419 C.ar    1  UNL1        0.0077
      9 C           6.5497   40.7017    8.1608 C.ar    1  UNL1        0.0149
     10 C           7.3789   40.9648    9.2559 C.ar    1  UNL1        0.0516
     11 C           6.8737   41.7032   10.3362 C.ar    1  UNL1        0.0149
     12 C           5.5569   42.1709   10.3187 C.ar    1  UNL1        0.0077
     13 C           3.3412   42.4016    9.2071 C.2     1  UNL1        0.3412
     14 O           2.3790   41.5848    9.1790 O.2     1  UNL1       -0.2449
     15 O           3.0965   43.7772    9.2240 O.3     1  UNL1       -0.4454
     16 C           4.7562   44.8366    7.8572 C.3     1  UNL1        0.0513
     17 C           3.2781   44.5867    8.0718 C.3     1  UNL1        0.2089
     18 C          12.3747   40.9934    8.2615 C.ar    1  UNL1        0.1904
     19 C          14.1600   42.1812    7.1899 C.ar    1  UNL1        0.1905
     20 N          13.5965   40.5109    8.5780 N.ar    1  UNL1       -0.1240
     21 N          14.5884   41.1754    7.9877 N.ar    1  UNL1       -0.1239
     22 S          12.4729   42.3032    7.2120 S.2     1  UNL1       -0.0151
     23 N          15.0573   43.0726    6.5001 N.pl3   1  UNL1       -0.2659
     24 C          16.3345   43.4655    7.0449 C.ar    1  UNL1        0.0531
     25 C          17.4173   43.7628    6.2009 C.ar    1  UNL1        0.0149
     26 C          18.6602   44.1155    6.7341 C.ar    1  UNL1        0.0013
     27 C          18.8373   44.1662    8.1185 C.ar    1  UNL1        0.0001
     28 C          17.7727   43.8608    8.9697 C.ar    1  UNL1        0.0013
     29 C          16.5299   43.5086    8.4357 C.ar    1  UNL1        0.0149
     30 C          14.6523   43.5846    5.1934 C.3     1  UNL1        0.0975
     31 C          14.4371   45.0854    5.2638 C.3     1  UNL1        0.0236
@<TRIPOS>BOND
     1    16    17    1
     2    17    15    1
     3    13    15    1
     4    13     7    1
     5     8     9   ar
     6    10     3    1
     7    10    11   ar
     8     1     4   am
     9    18    22   ar
    10    19    22   ar
    11    19    23    1
    12    30    23    1
    13    30    31    1
    14    25    26   ar
    15    27    28   ar
    16    29    24   ar
    17    12     7   ar
    18     3     1   am
    19     4    18    1
    20    20    21   ar
    21    23    24    1
    22    13    14    2
    23     7     8   ar
    24     9    10   ar
    25     1     2    2
    26    18    20   ar
    27    19    21   ar
    28    24    25   ar
    29    26    27   ar
    30    28    29   ar
    31    11    12   ar
    32     3     5    1
    33     4     6    1
