@<TRIPOS>MOLECULE
MolPort-028-888-287 ChemDiv-V030-0800 MCULE-8573276261 PubChem-71955375 ZINC000096280451 ZINC96280451
 28 30 0 0 0
SMALL
GASTEIGER

@<TRIPOS>ATOM
      1 C          10.1590   40.1865   10.8584 C.3     1  UNL1        0.1015
      2 C           9.4242   41.0125   11.9011 C.3     1  UNL1        0.0435
      3 C           8.6072   42.1054   11.2181 C.3     1  UNL1        0.0971
      4 C          10.6359   42.3387    9.7135 C.2     1  UNL1        0.3112
      5 O          11.3077   43.0311    8.9008 O.2     1  UNL1       -0.2520
      6 N          11.0968   41.0341   10.1238 N.am    1  UNL1       -0.2430
      7 N           9.3878   42.8457   10.2249 N.am    1  UNL1       -0.2596
      8 C          14.6689   40.8453    8.9424 C.ar    1  UNL1        0.0515
      9 C          13.4023   41.3462    9.2593 C.ar    1  UNL1        0.0296
     10 C          12.3987   40.5108    9.7776 C.ar    1  UNL1        0.0565
     11 C          12.6963   39.1541    9.9888 C.ar    1  UNL1        0.0150
     12 C          13.9581   38.6442    9.6761 C.ar    1  UNL1        0.0026
     13 C          14.9408   39.4865    9.1534 C.ar    1  UNL1        0.0148
     14 C          17.0670   41.7076    8.6423 C.2     1  UNL1        0.2256
     15 O          17.5748   40.8292    9.3926 O.2     1  UNL1       -0.2748
     16 N          15.6518   41.7438    8.4099 N.am    1  UNL1       -0.2839
     17 H          15.3203   42.4612    7.8229 H       1  UNL1        0.1549
     18 C          17.6275   42.9006    6.5018 C.3     1  UNL1        0.0096
     19 C          17.9324   42.7415    7.9827 C.3     1  UNL1        0.0768
     20 C          17.7666   44.0798    8.6759 C.3     1  UNL1        0.0096
     21 C           8.8423   44.1125    9.7508 C.3     1  UNL1        0.1217
     22 C           7.8471   43.8843    8.6618 C.ar    1  UNL1       -0.0014
     23 C           8.1510   43.0155    7.6081 C.ar    1  UNL1       -0.0026
     24 C           7.2165   42.7920    6.5925 C.ar    1  UNL1        0.0006
     25 C           5.9762   43.4365    6.6295 C.ar    1  UNL1        0.0114
     26 C           5.6706   44.3047    7.6821 C.ar    1  UNL1        0.0574
     27 C           6.6047   44.5284    8.6977 C.ar    1  UNL1        0.0088
     28 CL          4.1178   45.1100    7.7297 Cl      1  UNL1       -0.0823
@<TRIPOS>BOND
     1    18    19    1
     2    19    20    1
     3    19    14    1
     4    14    16   am
     5     9    10   ar
     6    10     6    1
     7    11    12   ar
     8    13     8   ar
     9     1     6    1
    10     1     2    1
    11     2     3    1
    12     3     7    1
    13    21     7    1
    14    21    22    1
    15    23    24   ar
    16    25    26   ar
    17    26    28    1
    18    27    22   ar
    19     4     6   am
    20    16     8    1
    21     7     4   am
    22    14    15    2
    23     8     9   ar
    24    10    11   ar
    25    12    13   ar
    26    22    23   ar
    27    24    25   ar
    28    26    27   ar
    29     4     5    2
    30    16    17    1
@<TRIPOS>MOLECULE
MolPort-028-888-287 ChemDiv-V030-0800 MCULE-8573276261 PubChem-71955375 ZINC000096280451 ZINC96280451
 28 30 0 0 0
SMALL
GASTEIGER

@<TRIPOS>ATOM
      1 C          12.4134   40.5089   10.5821 C.3     1  UNL1        0.1015
      2 C          13.1097   39.5452    9.6357 C.3     1  UNL1        0.0435
      3 C          13.6540   40.3033    8.4285 C.3     1  UNL1        0.0971
      4 C          11.4632   41.5757    8.5502 C.2     1  UNL1        0.3112
      5 O          10.6009   42.3041    7.9868 O.2     1  UNL1       -0.2520
      6 N          11.2733   41.1294    9.9094 N.am    1  UNL1       -0.2430
      7 N          12.6576   41.1988    7.8377 N.am    1  UNL1       -0.2596
      8 C           7.6647   41.8713   10.6960 C.ar    1  UNL1        0.0515
      9 C           8.8568   41.6901    9.9877 C.ar    1  UNL1        0.0296
     10 C          10.0468   41.3363   10.6452 C.ar    1  UNL1        0.0565
     11 C          10.0157   41.1508   12.0375 C.ar    1  UNL1        0.0150
     12 C           8.8303   41.3288   12.7539 C.ar    1  UNL1        0.0026
     13 C           7.6590   41.6892   12.0857 C.ar    1  UNL1        0.0148
     14 C           6.3836   43.2085    8.9197 C.2     1  UNL1        0.2256
     15 O           7.3988   43.8563    8.5428 O.2     1  UNL1       -0.2748
     16 N           6.4822   42.2388    9.9723 N.am    1  UNL1       -0.2839
     17 H           5.6503   41.7768   10.2247 H       1  UNL1        0.1549
     18 C           3.8936   43.2763    9.2575 C.3     1  UNL1        0.0096
     19 C           5.0462   43.4451    8.2807 C.3     1  UNL1        0.0768
     20 C           4.9944   44.8358    7.6787 C.3     1  UNL1        0.0096
     21 C          12.9297   41.7181    6.5023 C.3     1  UNL1        0.1217
     22 C          14.0514   42.7025    6.5369 C.ar    1  UNL1       -0.0014
     23 C          13.9812   43.8693    5.7681 C.ar    1  UNL1       -0.0026
     24 C          15.0257   44.7979    5.8069 C.ar    1  UNL1        0.0006
     25 C          16.1419   44.5612    6.6152 C.ar    1  UNL1        0.0114
     26 C          16.2134   43.3958    7.3845 C.ar    1  UNL1        0.0574
     27 C          15.1692   42.4672    7.3460 C.ar    1  UNL1        0.0088
     28 CL         17.6093   43.1002    8.3976 Cl      1  UNL1       -0.0823
@<TRIPOS>BOND
     1    18    19    1
     2    19    20    1
     3    19    14    1
     4    14    16   am
     5     9    10   ar
     6    10     6    1
     7    11    12   ar
     8    13     8   ar
     9     1     6    1
    10     1     2    1
    11     2     3    1
    12     3     7    1
    13    21     7    1
    14    21    22    1
    15    23    24   ar
    16    25    26   ar
    17    26    28    1
    18    27    22   ar
    19     4     6   am
    20    16     8    1
    21     7     4   am
    22    14    15    2
    23     8     9   ar
    24    10    11   ar
    25    12    13   ar
    26    22    23   ar
    27    24    25   ar
    28    26    27   ar
    29     4     5    2
    30    16    17    1
@<TRIPOS>MOLECULE
MolPort-028-888-287 ChemDiv-V030-0800 MCULE-8573276261 PubChem-71955375 ZINC000096280451 ZINC96280451
 28 30 0 0 0
SMALL
GASTEIGER

@<TRIPOS>ATOM
      1 C          10.7346   40.3689   10.1961 C.3     1  UNL1        0.1015
      2 C           9.9107   40.7762   11.4063 C.3     1  UNL1        0.0435
      3 C           8.8264   41.7653   10.9887 C.3     1  UNL1        0.0971
      4 C          10.6424   42.7579    9.5222 C.2     1  UNL1        0.3112
      5 O          11.0858   43.7355    8.8595 O.2     1  UNL1       -0.2520
      6 N          11.4079   41.5398    9.6365 N.am    1  UNL1       -0.2430
      7 N           9.3524   42.8498   10.1574 N.am    1  UNL1       -0.2596
      8 C          15.0079   40.4655    9.3586 C.ar    1  UNL1        0.0515
      9 C          13.6993   40.6062    9.8313 C.ar    1  UNL1        0.0296
     10 C          12.7656   41.4117    9.1581 C.ar    1  UNL1        0.0565
     11 C          13.1677   42.0674    7.9825 C.ar    1  UNL1        0.0150
     12 C          14.4719   41.9330    7.5019 C.ar    1  UNL1        0.0026
     13 C          15.3894   41.1358    8.1882 C.ar    1  UNL1        0.0148
     14 C          17.3526   39.6783   10.0419 C.2     1  UNL1        0.2256
     15 O          17.9475   40.4983    9.2893 O.2     1  UNL1       -0.2748
     16 N          15.9196   39.6353   10.0910 N.am    1  UNL1       -0.2839
     17 H          15.5197   38.9650   10.6910 H       1  UNL1        0.1549
     18 C          17.4094   37.4008   11.1041 C.3     1  UNL1        0.0096
     19 C          18.1323   38.7221   10.8965 C.3     1  UNL1        0.0768
     20 C          19.4915   38.4588   10.2782 C.3     1  UNL1        0.0096
     21 C           8.5084   44.0252    9.9747 C.3     1  UNL1        0.1217
     22 C           7.6084   43.8511    8.7965 C.ar    1  UNL1       -0.0014
     23 C           8.0065   43.0422    7.7265 C.ar    1  UNL1       -0.0026
     24 C           7.1610   42.8691    6.6266 C.ar    1  UNL1        0.0006
     25 C           5.9157   43.5041    6.5953 C.ar    1  UNL1        0.0114
     26 C           5.5161   44.3125    7.6640 C.ar    1  UNL1        0.0574
     27 C           6.3612   44.4858    8.7639 C.ar    1  UNL1        0.0088
     28 CL          3.9569   45.1060    7.6259 Cl      1  UNL1       -0.0823
@<TRIPOS>BOND
     1    18    19    1
     2    19    20    1
     3    19    14    1
     4    14    16   am
     5     9    10   ar
     6    10     6    1
     7    11    12   ar
     8    13     8   ar
     9     1     6    1
    10     1     2    1
    11     2     3    1
    12     3     7    1
    13    21     7    1
    14    21    22    1
    15    23    24   ar
    16    25    26   ar
    17    26    28    1
    18    27    22   ar
    19     4     6   am
    20    16     8    1
    21     7     4   am
    22    14    15    2
    23     8     9   ar
    24    10    11   ar
    25    12    13   ar
    26    22    23   ar
    27    24    25   ar
    28    26    27   ar
    29     4     5    2
    30    16    17    1
@<TRIPOS>MOLECULE
MolPort-028-888-287 ChemDiv-V030-0800 MCULE-8573276261 PubChem-71955375 ZINC000096280451 ZINC96280451
 28 30 0 0 0
SMALL
GASTEIGER

@<TRIPOS>ATOM
      1 C          11.6985   39.4076    7.8321 C.3     1  UNL1        0.1015
      2 C          10.3531   38.7117    7.9542 C.3     1  UNL1        0.0435
      3 C           9.2942   39.7049    8.4240 C.3     1  UNL1        0.0971
      4 C          11.1256   40.5533    9.9603 C.2     1  UNL1        0.3112
      5 O          11.4620   41.1901   10.9960 O.2     1  UNL1       -0.2520
      6 N          12.1209   39.9055    9.1402 N.am    1  UNL1       -0.2430
      7 N           9.7372   40.4852    9.5811 N.am    1  UNL1       -0.2596
      8 C          15.8283   40.5461    9.3310 C.ar    1  UNL1        0.0515
      9 C          14.4858   40.6344    8.9497 C.ar    1  UNL1        0.0296
     10 C          13.5111   39.7990    9.5205 C.ar    1  UNL1        0.0565
     11 C          13.9088   38.8751   10.5013 C.ar    1  UNL1        0.0150
     12 C          15.2468   38.7794   10.8895 C.ar    1  UNL1        0.0026
     13 C          16.2036   39.6111   10.3055 C.ar    1  UNL1        0.0148
     14 C          16.5237   42.3683    7.6636 C.2     1  UNL1        0.2256
     15 O          15.3655   42.4964    7.1794 O.2     1  UNL1       -0.2748
     16 N          16.7802   41.4202    8.7092 N.am    1  UNL1       -0.2839
     17 H          17.7078   41.3636    9.0343 H       1  UNL1        0.1549
     18 C          17.2581   44.0874    5.9831 C.3     1  UNL1        0.0096
     19 C          17.6626   43.1996    7.1491 C.3     1  UNL1        0.0768
     20 C          18.2254   44.0602    8.2635 C.3     1  UNL1        0.0096
     21 C           8.7191   41.2153   10.3279 C.3     1  UNL1        0.1217
     22 C           8.2895   42.4346    9.5816 C.ar    1  UNL1       -0.0014
     23 C           8.5506   43.7044   10.1080 C.ar    1  UNL1       -0.0026
     24 C           8.1587   44.8481    9.4059 C.ar    1  UNL1        0.0006
     25 C           7.5056   44.7238    8.1758 C.ar    1  UNL1        0.0114
     26 C           7.2442   43.4556    7.6481 C.ar    1  UNL1        0.0574
     27 C           7.6360   42.3119    8.3498 C.ar    1  UNL1        0.0088
     28 CL          6.4284   43.2997    6.1079 Cl      1  UNL1       -0.0823
@<TRIPOS>BOND
     1    18    19    1
     2    19    20    1
     3    19    14    1
     4    14    16   am
     5     9    10   ar
     6    10     6    1
     7    11    12   ar
     8    13     8   ar
     9     1     6    1
    10     1     2    1
    11     2     3    1
    12     3     7    1
    13    21     7    1
    14    21    22    1
    15    23    24   ar
    16    25    26   ar
    17    26    28    1
    18    27    22   ar
    19     4     6   am
    20    16     8    1
    21     7     4   am
    22    14    15    2
    23     8     9   ar
    24    10    11   ar
    25    12    13   ar
    26    22    23   ar
    27    24    25   ar
    28    26    27   ar
    29     4     5    2
    30    16    17    1
@<TRIPOS>MOLECULE
MolPort-028-888-287 ChemDiv-V030-0800 MCULE-8573276261 PubChem-71955375 ZINC000096280451 ZINC96280451
 28 30 0 0 0
SMALL
GASTEIGER

@<TRIPOS>ATOM
      1 C          10.6541   42.0536   10.9703 C.3     1  UNL1        0.1015
      2 C          11.2112   40.6462   11.1055 C.3     1  UNL1        0.0435
      3 C          12.3713   40.4502   10.1338 C.3     1  UNL1        0.0971
      4 C          10.9155   41.7556    8.5182 C.2     1  UNL1        0.3112
      5 O          10.6332   42.0764    7.3313 O.2     1  UNL1       -0.2520
      6 N          10.1277   42.2521    9.6208 N.am    1  UNL1       -0.2430
      7 N          12.0449   40.8998    8.7791 N.am    1  UNL1       -0.2596
      8 C           6.4634   43.1242    9.5637 C.ar    1  UNL1        0.0515
      9 C           7.6522   42.4035    9.7150 C.ar    1  UNL1        0.0296
     10 C           8.8990   42.9919    9.4444 C.ar    1  UNL1        0.0565
     11 C           8.9329   44.3340    9.0301 C.ar    1  UNL1        0.0150
     12 C           7.7515   45.0625    8.8765 C.ar    1  UNL1        0.0026
     13 C           6.5208   44.4595    9.1411 C.ar    1  UNL1        0.0148
     14 C           3.9021   42.9719    9.5844 C.2     1  UNL1        0.2256
     15 O           3.7384   44.1077    9.0595 O.2     1  UNL1       -0.2748
     16 N           5.2196   42.4694    9.8481 N.am    1  UNL1       -0.2839
     17 H           5.2759   41.5811   10.2687 H       1  UNL1        0.1549
     18 C           2.7483   40.7587    9.2858 C.3     1  UNL1        0.0096
     19 C           2.7199   42.1241    9.9538 C.3     1  UNL1        0.0768
     20 C           2.6557   41.9455   11.4582 C.3     1  UNL1        0.0096
     21 C          12.9232   40.4665    7.6983 C.3     1  UNL1        0.1217
     22 C          13.9637   41.4994    7.4172 C.ar    1  UNL1       -0.0014
     23 C          13.7546   42.4453    6.4077 C.ar    1  UNL1       -0.0026
     24 C          14.7230   43.4202    6.1496 C.ar    1  UNL1        0.0006
     25 C          15.9017   43.4510    6.9011 C.ar    1  UNL1        0.0114
     26 C          16.1120   42.5067    7.9106 C.ar    1  UNL1        0.0574
     27 C          15.1440   41.5318    8.1690 C.ar    1  UNL1        0.0088
     28 CL         17.5862   42.5460    8.8526 Cl      1  UNL1       -0.0823
@<TRIPOS>BOND
     1    18    19    1
     2    19    20    1
     3    19    14    1
     4    14    16   am
     5     9    10   ar
     6    10     6    1
     7    11    12   ar
     8    13     8   ar
     9     1     6    1
    10     1     2    1
    11     2     3    1
    12     3     7    1
    13    21     7    1
    14    21    22    1
    15    23    24   ar
    16    25    26   ar
    17    26    28    1
    18    27    22   ar
    19     4     6   am
    20    16     8    1
    21     7     4   am
    22    14    15    2
    23     8     9   ar
    24    10    11   ar
    25    12    13   ar
    26    22    23   ar
    27    24    25   ar
    28    26    27   ar
    29     4     5    2
    30    16    17    1
@<TRIPOS>MOLECULE
MolPort-028-888-287 ChemDiv-V030-0800 MCULE-8573276261 PubChem-71955375 ZINC000096280451 ZINC96280451
 28 30 0 0 0
SMALL
GASTEIGER

@<TRIPOS>ATOM
      1 C          10.4544   41.1478    7.5197 C.3     1  UNL1        0.1015
      2 C          11.4708   41.9115    6.6874 C.3     1  UNL1        0.0435
      3 C          12.8364   41.2378    6.7867 C.3     1  UNL1        0.0971
      4 C          12.2398   40.9461    9.2348 C.2     1  UNL1        0.3112
      5 O          12.6106   40.7403   10.4229 O.2     1  UNL1       -0.2520
      6 N          10.8476   41.1702    8.9277 N.am    1  UNL1       -0.2430
      7 N          13.2113   40.9406    8.1706 N.am    1  UNL1       -0.2596
      8 C           7.5453   41.9061   10.5844 C.ar    1  UNL1        0.0515
      9 C           8.5354   41.7635    9.6071 C.ar    1  UNL1        0.0296
     10 C           9.8314   41.3367    9.9416 C.ar    1  UNL1        0.0565
     11 C          10.1148   41.0380   11.2849 C.ar    1  UNL1        0.0150
     12 C           9.1331   41.1767   12.2682 C.ar    1  UNL1        0.0026
     13 C           7.8530   41.6105   11.9195 C.ar    1  UNL1        0.0148
     14 C           4.9840   41.7589   10.5369 C.2     1  UNL1        0.2256
     15 O           4.9381   40.7267   11.2615 O.2     1  UNL1       -0.2748
     16 N           6.2420   42.3518   10.1850 N.am    1  UNL1       -0.2839
     17 H           6.2069   43.1491    9.6084 H       1  UNL1        0.1549
     18 C           3.9903   43.5205    9.0443 C.3     1  UNL1        0.0096
     19 C           3.7221   42.3846   10.0185 C.3     1  UNL1        0.0768
     20 C           2.8597   41.3366    9.3424 C.3     1  UNL1        0.0096
     21 C          14.6084   40.6138    8.4321 C.3     1  UNL1        0.1217
     22 C          15.4879   41.7844    8.1414 C.ar    1  UNL1       -0.0014
     23 C          16.7575   41.8663    8.7236 C.ar    1  UNL1       -0.0026
     24 C          17.5873   42.9564    8.4446 C.ar    1  UNL1        0.0006
     25 C          17.1490   43.9660    7.5822 C.ar    1  UNL1        0.0114
     26 C          15.8807   43.8854    6.9991 C.ar    1  UNL1        0.0574
     27 C          15.0508   42.7957    7.2778 C.ar    1  UNL1        0.0088
     28 CL         15.3325   45.1479    5.9184 Cl      1  UNL1       -0.0823
@<TRIPOS>BOND
     1    18    19    1
     2    19    20    1
     3    19    14    1
     4    14    16   am
     5     9    10   ar
     6    10     6    1
     7    11    12   ar
     8    13     8   ar
     9     1     6    1
    10     1     2    1
    11     2     3    1
    12     3     7    1
    13    21     7    1
    14    21    22    1
    15    23    24   ar
    16    25    26   ar
    17    26    28    1
    18    27    22   ar
    19     4     6   am
    20    16     8    1
    21     7     4   am
    22    14    15    2
    23     8     9   ar
    24    10    11   ar
    25    12    13   ar
    26    22    23   ar
    27    24    25   ar
    28    26    27   ar
    29     4     5    2
    30    16    17    1
@<TRIPOS>MOLECULE
MolPort-028-888-287 ChemDiv-V030-0800 MCULE-8573276261 PubChem-71955375 ZINC000096280451 ZINC96280451
 28 30 0 0 0
SMALL
GASTEIGER

@<TRIPOS>ATOM
      1 C           9.1241   40.4878    5.6606 C.3     1  UNL1        0.1015
      2 C          10.3759   40.5512    4.8012 C.3     1  UNL1        0.0435
      3 C          11.5939   40.1435    5.6251 C.3     1  UNL1        0.0971
      4 C          10.4973   41.5034    7.4641 C.2     1  UNL1        0.3112
      5 O          10.5982   42.1330    8.5526 O.2     1  UNL1       -0.2520
      6 N           9.2343   41.4343    6.7694 N.am    1  UNL1       -0.2430
      7 N          11.6484   40.8317    6.9163 N.am    1  UNL1       -0.2596
      8 C           6.2820   42.6602    8.7626 C.ar    1  UNL1        0.0515
      9 C           7.3960   41.9132    8.3668 C.ar    1  UNL1        0.0296
     10 C           8.0709   42.1939    7.1670 C.ar    1  UNL1        0.0565
     11 C           7.6130   43.2575    6.3714 C.ar    1  UNL1        0.0150
     12 C           6.5019   44.0098    6.7580 C.ar    1  UNL1        0.0026
     13 C           5.8377   43.7114    7.9489 C.ar    1  UNL1        0.0148
     14 C           4.2219   42.1338   10.1990 C.2     1  UNL1        0.2256
     15 O           3.4074   42.2719    9.2451 O.2     1  UNL1       -0.2748
     16 N           5.6291   42.3237    9.9944 N.am    1  UNL1       -0.2839
     17 H           6.2077   42.2111   10.7829 H       1  UNL1        0.1549
     18 C           2.2930   42.1958   11.8096 C.3     1  UNL1        0.0096
     19 C           3.7351   41.7765   11.5731 C.3     1  UNL1        0.0768
     20 C           3.8675   40.2834   11.8016 C.3     1  UNL1        0.0096
     21 C          12.9115   40.7934    7.6445 C.3     1  UNL1        0.1217
     22 C          13.8177   41.8883    7.1879 C.ar    1  UNL1       -0.0014
     23 C          13.3708   42.8159    6.2406 C.ar    1  UNL1       -0.0026
     24 C          14.2139   43.8485    5.8191 C.ar    1  UNL1        0.0006
     25 C          15.5052   43.9554    6.3449 C.ar    1  UNL1        0.0114
     26 C          15.9532   43.0295    7.2920 C.ar    1  UNL1        0.0574
     27 C          15.1105   41.9969    7.7136 C.ar    1  UNL1        0.0088
     28 CL         17.5685   43.1640    7.9515 Cl      1  UNL1       -0.0823
@<TRIPOS>BOND
     1    18    19    1
     2    19    20    1
     3    19    14    1
     4    14    16   am
     5     9    10   ar
     6    10     6    1
     7    11    12   ar
     8    13     8   ar
     9     1     6    1
    10     1     2    1
    11     2     3    1
    12     3     7    1
    13    21     7    1
    14    21    22    1
    15    23    24   ar
    16    25    26   ar
    17    26    28    1
    18    27    22   ar
    19     4     6   am
    20    16     8    1
    21     7     4   am
    22    14    15    2
    23     8     9   ar
    24    10    11   ar
    25    12    13   ar
    26    22    23   ar
    27    24    25   ar
    28    26    27   ar
    29     4     5    2
    30    16    17    1
@<TRIPOS>MOLECULE
MolPort-028-888-287 ChemDiv-V030-0800 MCULE-8573276261 PubChem-71955375 ZINC000096280451 ZINC96280451
 28 30 0 0 0
SMALL
GASTEIGER

@<TRIPOS>ATOM
      1 C          10.3172   39.7795    7.9166 C.3     1  UNL1        0.1015
      2 C          10.3499   40.0354    6.4190 C.3     1  UNL1        0.0435
      3 C          11.6787   40.6765    6.0296 C.3     1  UNL1        0.0971
      4 C          11.3785   42.0115    8.1653 C.2     1  UNL1        0.3112
      5 O          11.6666   43.0254    8.8584 O.2     1  UNL1       -0.2520
      6 N          10.4157   41.0466    8.6394 N.am    1  UNL1       -0.2430
      7 N          12.0281   41.8039    6.8960 N.am    1  UNL1       -0.2596
      8 C           7.4965   41.8572   10.8782 C.ar    1  UNL1        0.0515
      9 C           8.2804   41.6816    9.7335 C.ar    1  UNL1        0.0296
     10 C           9.6134   41.2472    9.8245 C.ar    1  UNL1        0.0565
     11 C          10.1462   40.9749   11.0957 C.ar    1  UNL1        0.0150
     12 C           9.3716   41.1466   12.2448 C.ar    1  UNL1        0.0026
     13 C           8.0516   41.5876   12.1367 C.ar    1  UNL1        0.0148
     14 C           5.1842   41.8430    9.7658 C.2     1  UNL1        0.2256
     15 O           5.4912   40.9510    8.9276 O.2     1  UNL1       -0.2748
     16 N           6.1441   42.3092   10.7246 N.am    1  UNL1       -0.2839
     17 H           5.8426   43.0138   11.3425 H       1  UNL1        0.1549
     18 C           3.6973   43.6585    8.8648 C.3     1  UNL1        0.0096
     19 C           3.8088   42.4438    9.7722 C.3     1  UNL1        0.0768
     20 C           2.7849   41.4075    9.3517 C.3     1  UNL1        0.0096
     21 C          13.0807   42.7027    6.4363 C.3     1  UNL1        0.1217
     22 C          14.3552   42.4415    7.1684 C.ar    1  UNL1       -0.0014
     23 C          14.4510   41.3484    8.0365 C.ar    1  UNL1       -0.0026
     24 C          15.6469   41.0954    8.7152 C.ar    1  UNL1        0.0006
     25 C          16.7491   41.9348    8.5262 C.ar    1  UNL1        0.0114
     26 C          16.6552   43.0273    7.6586 C.ar    1  UNL1        0.0574
     27 C          15.4597   43.2806    6.9799 C.ar    1  UNL1        0.0088
     28 CL         18.0349   44.0770    7.4205 Cl      1  UNL1       -0.0823
@<TRIPOS>BOND
     1    18    19    1
     2    19    20    1
     3    19    14    1
     4    14    16   am
     5     9    10   ar
     6    10     6    1
     7    11    12   ar
     8    13     8   ar
     9     1     6    1
    10     1     2    1
    11     2     3    1
    12     3     7    1
    13    21     7    1
    14    21    22    1
    15    23    24   ar
    16    25    26   ar
    17    26    28    1
    18    27    22   ar
    19     4     6   am
    20    16     8    1
    21     7     4   am
    22    14    15    2
    23     8     9   ar
    24    10    11   ar
    25    12    13   ar
    26    22    23   ar
    27    24    25   ar
    28    26    27   ar
    29     4     5    2
    30    16    17    1
@<TRIPOS>MOLECULE
MolPort-028-888-287 ChemDiv-V030-0800 MCULE-8573276261 PubChem-71955375 ZINC000096280451 ZINC96280451
 28 30 0 0 0
SMALL
GASTEIGER

@<TRIPOS>ATOM
      1 C          10.6985   43.5157   10.0502 C.3     1  UNL1        0.1015
      2 C           9.2997   43.9528    9.6480 C.3     1  UNL1        0.0435
      3 C           8.2855   43.4637   10.6779 C.3     1  UNL1        0.0971
      4 C           9.6731   41.3405   10.6722 C.2     1  UNL1        0.3112
      5 O           9.7666   40.1069   10.9192 O.2     1  UNL1       -0.2520
      6 N          10.7750   42.0559   10.0749 N.am    1  UNL1       -0.2430
      7 N           8.4623   42.0474   11.0044 N.am    1  UNL1       -0.2596
      8 C          14.0835   41.4844    8.3665 C.ar    1  UNL1        0.0515
      9 C          12.9222   42.1097    8.8311 C.ar    1  UNL1        0.0296
     10 C          11.9648   41.4031    9.5781 C.ar    1  UNL1        0.0565
     11 C          12.2031   40.0489    9.8664 C.ar    1  UNL1        0.0150
     12 C          13.3599   39.4154    9.4076 C.ar    1  UNL1        0.0026
     13 C          14.2964   40.1302    8.6590 C.ar    1  UNL1        0.0148
     14 C          14.7413   43.0512    6.4438 C.2     1  UNL1        0.2256
     15 O          13.5702   43.1230    5.9793 O.2     1  UNL1       -0.2748
     16 N          15.0223   42.2542    7.6030 N.am    1  UNL1       -0.2839
     17 H          15.9586   42.2335    7.9066 H       1  UNL1        0.1549
     18 C          15.6117   45.2869    5.6937 C.3     1  UNL1        0.0096
     19 C          15.8698   43.7916    5.7872 C.3     1  UNL1        0.0768
     20 C          17.1615   43.5515    6.5441 C.3     1  UNL1        0.0096
     21 C           7.3710   41.3784   11.7036 C.3     1  UNL1        0.1217
     22 C           6.1115   41.4473   10.9052 C.ar    1  UNL1       -0.0014
     23 C           6.1414   41.1945    9.5295 C.ar    1  UNL1       -0.0026
     24 C           4.9615   41.2481    8.7814 C.ar    1  UNL1        0.0006
     25 C           3.7496   41.5539    9.4082 C.ar    1  UNL1        0.0114
     26 C           3.7179   41.8064   10.7831 C.ar    1  UNL1        0.0574
     27 C           4.8974   41.7530   11.5313 C.ar    1  UNL1        0.0088
     28 CL          2.2011   42.1876   11.5682 Cl      1  UNL1       -0.0823
@<TRIPOS>BOND
     1    18    19    1
     2    19    20    1
     3    19    14    1
     4    14    16   am
     5     9    10   ar
     6    10     6    1
     7    11    12   ar
     8    13     8   ar
     9     1     6    1
    10     1     2    1
    11     2     3    1
    12     3     7    1
    13    21     7    1
    14    21    22    1
    15    23    24   ar
    16    25    26   ar
    17    26    28    1
    18    27    22   ar
    19     4     6   am
    20    16     8    1
    21     7     4   am
    22    14    15    2
    23     8     9   ar
    24    10    11   ar
    25    12    13   ar
    26    22    23   ar
    27    24    25   ar
    28    26    27   ar
    29     4     5    2
    30    16    17    1
@<TRIPOS>MOLECULE
MolPort-028-888-287 ChemDiv-V030-0800 MCULE-8573276261 PubChem-71955375 ZINC000096280451 ZINC96280451
 28 30 0 0 0
SMALL
GASTEIGER

@<TRIPOS>ATOM
      1 C          12.8805   42.1510    6.0745 C.3     1  UNL1        0.1015
      2 C          11.9374   41.0631    5.5882 C.3     1  UNL1        0.0435
      3 C          10.7559   40.9328    6.5450 C.3     1  UNL1        0.0971
      4 C          12.5052   41.2422    8.3555 C.2     1  UNL1        0.3112
      5 O          12.8507   41.1106    9.5616 O.2     1  UNL1       -0.2520
      6 N          13.4209   41.7911    7.3844 N.am    1  UNL1       -0.2430
      7 N          11.1787   40.8577    7.9449 N.am    1  UNL1       -0.2596
      8 C          16.8900   41.5073    8.8252 C.ar    1  UNL1        0.0515
      9 C          15.5407   41.2547    8.5586 C.ar    1  UNL1        0.0296
     10 C          14.8097   42.0658    7.6745 C.ar    1  UNL1        0.0565
     11 C          15.4670   43.1360    7.0449 C.ar    1  UNL1        0.0150
     12 C          16.8143   43.3964    7.3040 C.ar    1  UNL1        0.0026
     13 C          17.5232   42.5857    8.1920 C.ar    1  UNL1        0.0148
     14 C          17.3845   39.2404    9.9209 C.2     1  UNL1        0.2256
     15 O          16.5168   38.6210    9.2457 O.2     1  UNL1       -0.2748
     16 N          17.5837   40.6497    9.7417 N.am    1  UNL1       -0.2839
     17 H          18.2691   41.0729   10.3077 H       1  UNL1        0.1549
     18 C          17.4205   37.5112   11.7450 C.3     1  UNL1        0.0096
     19 C          18.2223   38.5171   10.9347 C.3     1  UNL1        0.0768
     20 C          19.3729   37.8064   10.2492 C.3     1  UNL1        0.0096
     21 C          10.1954   40.3986    8.9193 C.3     1  UNL1        0.1217
     22 C           8.8407   40.9358    8.5958 C.ar    1  UNL1       -0.0014
     23 C           8.4065   42.1325    9.1763 C.ar    1  UNL1       -0.0026
     24 C           7.1424   42.6432    8.8668 C.ar    1  UNL1        0.0006
     25 C           6.3107   41.9583    7.9756 C.ar    1  UNL1        0.0114
     26 C           6.7432   40.7625    7.3942 C.ar    1  UNL1        0.0574
     27 C           8.0071   40.2515    7.7034 C.ar    1  UNL1        0.0088
     28 CL          5.7033   39.9059    6.2775 Cl      1  UNL1       -0.0823
@<TRIPOS>BOND
     1    18    19    1
     2    19    20    1
     3    19    14    1
     4    14    16   am
     5     9    10   ar
     6    10     6    1
     7    11    12   ar
     8    13     8   ar
     9     1     6    1
    10     1     2    1
    11     2     3    1
    12     3     7    1
    13    21     7    1
    14    21    22    1
    15    23    24   ar
    16    25    26   ar
    17    26    28    1
    18    27    22   ar
    19     4     6   am
    20    16     8    1
    21     7     4   am
    22    14    15    2
    23     8     9   ar
    24    10    11   ar
    25    12    13   ar
    26    22    23   ar
    27    24    25   ar
    28    26    27   ar
    29     4     5    2
    30    16    17    1
