@<TRIPOS>MOLECULE
MolPort-007-723-643 6818398 CHEMBL1311429 ChemDiv-E157-6969 MCULE-8039060778 PubChem-22518151 ZINC000006818398 ZINC06818398
 25 26 0 0 0
SMALL
GASTEIGER

@<TRIPOS>ATOM
      1 O          15.4463   37.3468    8.6874 O.2     1  UNL1       -0.1477
      2 O          15.3833   37.1796   11.1277 O.2     1  UNL1       -0.1477
      3 S          15.1370   38.0895    9.9568 S.O2    1  UNL1        0.1010
      4 C          11.2902   39.5271   10.3056 C.ar    1  UNL1        0.1893
      5 C          13.4560   38.5821    9.9654 C.ar    1  UNL1        0.2593
      6 N          11.3362   38.6768    9.2560 N.ar    1  UNL1       -0.1239
      7 N          12.5449   38.1512    9.0663 N.ar    1  UNL1       -0.1187
      8 S          12.7853   39.6683   11.0642 S.2     1  UNL1       -0.0102
      9 C           9.5639   41.3717   10.0623 C.2     1  UNL1        0.2271
     10 O          10.1073   41.8449    9.0266 O.2     1  UNL1       -0.2747
     11 N          10.1156   40.2288   10.7237 N.am    1  UNL1       -0.2627
     12 H           9.6516   39.9004   11.5275 H       1  UNL1        0.1568
     13 C           7.1275   41.6708    9.7522 C.3     1  UNL1        0.0096
     14 C           8.3289   42.0018   10.6166 C.3     1  UNL1        0.0769
     15 C           8.0850   41.5357   12.0391 C.3     1  UNL1        0.0096
     16 C          17.1927   39.5078   11.0890 C.3     1  UNL1        0.1392
     17 N          16.1594   39.4920   10.0626 N.pl3   1  UNL1       -0.1870
     18 C          15.9873   40.6192    9.1801 C.ar    1  UNL1        0.0683
     19 C          14.7929   40.7856    8.4583 C.ar    1  UNL1        0.0119
     20 C          14.6259   41.8746    7.5982 C.ar    1  UNL1       -0.0209
     21 C          13.3572   42.0360    6.8418 C.3     1  UNL1        0.0311
     22 C          15.6520   42.8104    7.4485 C.ar    1  UNL1       -0.0084
     23 C          16.8441   42.6578    8.1600 C.ar    1  UNL1       -0.0209
     24 C          17.9374   43.6511    8.0015 C.3     1  UNL1        0.0311
     25 C          17.0093   41.5696    9.0205 C.ar    1  UNL1        0.0119
@<TRIPOS>BOND
     1    13    14    1
     2    14    15    1
     3    14     9    1
     4     9    11   am
     5     4     8   ar
     6     5     8   ar
     7    16    17    1
     8    19    20   ar
     9    21    20    1
    10    22    23   ar
    11    24    23    1
    12    25    18   ar
    13    11     4    1
    14     6     7   ar
    15    17    18    1
    16     3     5    1
    17     3    17    1
    18     9    10    2
    19     4     6   ar
    20     5     7   ar
    21    18    19   ar
    22    20    22   ar
    23    23    25   ar
    24     3     1    2
    25     3     2    2
    26    11    12    1
@<TRIPOS>MOLECULE
MolPort-007-723-643 6818398 CHEMBL1311429 ChemDiv-E157-6969 MCULE-8039060778 PubChem-22518151 ZINC000006818398 ZINC06818398
 25 26 0 0 0
SMALL
GASTEIGER

@<TRIPOS>ATOM
      1 O          15.3325   37.4045    8.5965 O.2     1  UNL1       -0.1477
      2 O          15.2805   37.1809   11.0325 O.2     1  UNL1       -0.1477
      3 S          15.0320   38.1187    9.8842 S.O2    1  UNL1        0.1010
      4 C          11.1919   39.5603   10.2860 C.ar    1  UNL1        0.1893
      5 C          13.3529   38.6170    9.9124 C.ar    1  UNL1        0.2593
      6 N          11.2310   38.7387    9.2134 N.ar    1  UNL1       -0.1239
      7 N          12.4370   38.2141    9.0052 N.ar    1  UNL1       -0.1187
      8 S          12.6901   39.6753   11.0427 S.2     1  UNL1       -0.0102
      9 C           9.4718   41.4171   10.0994 C.2     1  UNL1        0.2271
     10 O          10.0134   41.9166    9.0751 O.2     1  UNL1       -0.2747
     11 N          10.0214   40.2545   10.7273 N.am    1  UNL1       -0.2627
     12 H           9.5589   39.9059   11.5234 H       1  UNL1        0.1568
     13 C           7.0322   41.7176    9.8165 C.3     1  UNL1        0.0096
     14 C           8.2411   42.0364   10.6751 C.3     1  UNL1        0.0769
     15 C           8.0108   41.5470   12.0921 C.3     1  UNL1        0.0096
     16 C          17.0664   39.5233   11.0705 C.3     1  UNL1        0.1392
     17 N          16.0601   39.5147   10.0176 N.pl3   1  UNL1       -0.1870
     18 C          15.9180   40.6435    9.1318 C.ar    1  UNL1        0.0683
     19 C          16.9639   41.5704    8.9825 C.ar    1  UNL1        0.0119
     20 C          16.8265   42.6682    8.1284 C.ar    1  UNL1       -0.0209
     21 C          17.9415   43.6395    7.9820 C.3     1  UNL1        0.0311
     22 C          15.6408   42.8533    7.4137 C.ar    1  UNL1       -0.0084
     23 C          14.5935   41.9397    7.5521 C.ar    1  UNL1       -0.0209
     24 C          13.3309   42.1351    6.7939 C.3     1  UNL1        0.0311
     25 C          14.7325   40.8420    8.4050 C.ar    1  UNL1        0.0119
@<TRIPOS>BOND
     1    13    14    1
     2    14    15    1
     3    14     9    1
     4     9    11   am
     5     4     8   ar
     6     5     8   ar
     7    16    17    1
     8    19    20   ar
     9    21    20    1
    10    22    23   ar
    11    24    23    1
    12    25    18   ar
    13    11     4    1
    14     6     7   ar
    15    17    18    1
    16     3     5    1
    17     3    17    1
    18     9    10    2
    19     4     6   ar
    20     5     7   ar
    21    18    19   ar
    22    20    22   ar
    23    23    25   ar
    24     3     1    2
    25     3     2    2
    26    11    12    1
@<TRIPOS>MOLECULE
MolPort-007-723-643 6818398 CHEMBL1311429 ChemDiv-E157-6969 MCULE-8039060778 PubChem-22518151 ZINC000006818398 ZINC06818398
 25 26 0 0 0
SMALL
GASTEIGER

@<TRIPOS>ATOM
      1 O           8.4178   40.0257    8.1985 O.2     1  UNL1       -0.1477
      2 O           7.7504   41.3224    6.2338 O.2     1  UNL1       -0.1477
      3 S           8.5294   41.3615    7.5189 S.O2    1  UNL1        0.1010
      4 C          12.5461   42.1843    7.0994 C.ar    1  UNL1        0.1893
      5 C          10.2076   41.7070    7.1541 C.ar    1  UNL1        0.2593
      6 N          12.0207   41.9771    5.8714 N.ar    1  UNL1       -0.1239
      7 N          10.7167   41.7097    5.9031 N.ar    1  UNL1       -0.1187
      8 S          11.3864   42.0412    8.3098 S.2     1  UNL1       -0.0102
      9 C          14.6325   43.5956    6.7886 C.2     1  UNL1        0.2271
     10 O          14.0574   44.4072    6.0123 O.2     1  UNL1       -0.2747
     11 N          13.9226   42.4855    7.3469 N.am    1  UNL1       -0.2627
     12 H          14.4192   41.8833    7.9468 H       1  UNL1        0.1568
     13 C          16.6114   42.5579    7.8510 C.3     1  UNL1        0.0096
     14 C          16.0720   43.7831    7.1381 C.3     1  UNL1        0.0769
     15 C          16.8919   44.0574    5.8920 C.3     1  UNL1        0.0096
     16 C           8.8389   43.4540    9.2637 C.3     1  UNL1        0.1392
     17 N           7.8922   42.5925    8.5686 N.pl3   1  UNL1       -0.1870
     18 C           6.4734   42.7534    8.7681 C.ar    1  UNL1        0.0683
     19 C           5.7508   41.8267    9.5392 C.ar    1  UNL1        0.0119
     20 C           4.3744   41.9777    9.7297 C.ar    1  UNL1       -0.0209
     21 C           3.6249   40.9890   10.5472 C.3     1  UNL1        0.0311
     22 C           3.7032   43.0570    9.1504 C.ar    1  UNL1       -0.0084
     23 C           4.4088   43.9857    8.3822 C.ar    1  UNL1       -0.0209
     24 C           3.6968   45.1339    7.7639 C.3     1  UNL1        0.0311
     25 C           5.7848   43.8346    8.1937 C.ar    1  UNL1        0.0119
@<TRIPOS>BOND
     1    13    14    1
     2    14    15    1
     3    14     9    1
     4     9    11   am
     5     4     8   ar
     6     5     8   ar
     7    16    17    1
     8    19    20   ar
     9    21    20    1
    10    22    23   ar
    11    24    23    1
    12    25    18   ar
    13    11     4    1
    14     6     7   ar
    15    17    18    1
    16     3     5    1
    17     3    17    1
    18     9    10    2
    19     4     6   ar
    20     5     7   ar
    21    18    19   ar
    22    20    22   ar
    23    23    25   ar
    24     3     1    2
    25     3     2    2
    26    11    12    1
@<TRIPOS>MOLECULE
MolPort-007-723-643 6818398 CHEMBL1311429 ChemDiv-E157-6969 MCULE-8039060778 PubChem-22518151 ZINC000006818398 ZINC06818398
 25 26 0 0 0
SMALL
GASTEIGER

@<TRIPOS>ATOM
      1 O          10.3281   39.5859    4.7906 O.2     1  UNL1       -0.1477
      2 O           9.5862   41.8133    5.4799 O.2     1  UNL1       -0.1477
      3 S          10.1842   40.5200    5.9590 S.O2    1  UNL1        0.1010
      4 C          13.9031   41.6432    7.3356 C.ar    1  UNL1        0.1893
      5 C          11.7566   40.8474    6.6584 C.ar    1  UNL1        0.2593
      6 N          13.4757   40.5900    8.0670 N.ar    1  UNL1       -0.1239
      7 N          12.2778   40.1477    7.6894 N.ar    1  UNL1       -0.1187
      8 S          12.7852   42.0837    6.1579 S.2     1  UNL1       -0.0102
      9 C          15.4900   43.5967    7.0086 C.2     1  UNL1        0.2271
     10 O          14.6662   44.2438    6.3054 O.2     1  UNL1       -0.2747
     11 N          15.1528   42.3099    7.5364 N.am    1  UNL1       -0.2627
     12 H          15.8325   41.8485    8.0790 H       1  UNL1        0.1568
     13 C          17.3877   43.5998    8.5963 C.3     1  UNL1        0.0096
     14 C          16.8379   44.1681    7.3020 C.3     1  UNL1        0.0769
     15 C          17.7981   43.8809    6.1637 C.3     1  UNL1        0.0096
     16 C           9.0442   38.3363    7.1635 C.3     1  UNL1        0.1392
     17 N           9.1525   39.7888    7.1525 N.pl3   1  UNL1       -0.1870
     18 C           8.4071   40.5854    8.0952 C.ar    1  UNL1        0.0683
     19 C           7.0017   40.5750    8.0854 C.ar    1  UNL1        0.0119
     20 C           6.2770   41.3504    8.9948 C.ar    1  UNL1       -0.0209
     21 C           4.7915   41.3288    8.9710 C.3     1  UNL1        0.0311
     22 C           6.9490   42.1468    9.9249 C.ar    1  UNL1       -0.0084
     23 C           8.3453   42.1664    9.9464 C.ar    1  UNL1       -0.0209
     24 C           9.0624   43.0137   10.9340 C.3     1  UNL1        0.0311
     25 C           9.0686   41.3898    9.0378 C.ar    1  UNL1        0.0119
@<TRIPOS>BOND
     1    13    14    1
     2    14    15    1
     3    14     9    1
     4     9    11   am
     5     4     8   ar
     6     5     8   ar
     7    16    17    1
     8    19    20   ar
     9    21    20    1
    10    22    23   ar
    11    24    23    1
    12    25    18   ar
    13    11     4    1
    14     6     7   ar
    15    17    18    1
    16     3     5    1
    17     3    17    1
    18     9    10    2
    19     4     6   ar
    20     5     7   ar
    21    18    19   ar
    22    20    22   ar
    23    23    25   ar
    24     3     1    2
    25     3     2    2
    26    11    12    1
@<TRIPOS>MOLECULE
MolPort-007-723-643 6818398 CHEMBL1311429 ChemDiv-E157-6969 MCULE-8039060778 PubChem-22518151 ZINC000006818398 ZINC06818398
 25 26 0 0 0
SMALL
GASTEIGER

@<TRIPOS>ATOM
      1 O          10.0054   40.3024    4.4778 O.2     1  UNL1       -0.1477
      2 O           9.2906   42.3409    5.6271 O.2     1  UNL1       -0.1477
      3 S           9.9597   41.0065    5.8047 S.O2    1  UNL1        0.1010
      4 C          13.8025   41.9678    6.9427 C.ar    1  UNL1        0.1893
      5 C          11.5870   41.2632    6.4004 C.ar    1  UNL1        0.2593
      6 N          13.3869   40.9162    7.6832 N.ar    1  UNL1       -0.1239
      7 N          12.1506   40.5248    7.3808 N.ar    1  UNL1       -0.1187
      8 S          12.6245   42.4715    5.8523 S.2     1  UNL1       -0.0102
      9 C          16.1335   42.1315    7.9334 C.2     1  UNL1        0.2271
     10 O          15.9742   41.1157    8.6646 O.2     1  UNL1       -0.2747
     11 N          15.0869   42.5851    7.0691 N.am    1  UNL1       -0.2627
     12 H          15.2643   43.3826    6.5197 H       1  UNL1        0.1568
     13 C          17.6703   43.5671    6.6299 C.3     1  UNL1        0.0096
     14 C          17.4251   42.8802    7.9597 C.3     1  UNL1        0.0769
     15 C          17.4245   43.9054    9.0774 C.3     1  UNL1        0.0096
     16 C           9.0595   38.5917    6.7415 C.3     1  UNL1        0.1392
     17 N           9.0673   40.0350    6.9375 N.pl3   1  UNL1       -0.1870
     18 C           8.3376   40.6290    8.0301 C.ar    1  UNL1        0.0683
     19 C           9.0182   41.1509    9.1436 C.ar    1  UNL1        0.0119
     20 C           8.3127   41.7224   10.2062 C.ar    1  UNL1       -0.0209
     21 C           9.0470   42.2693   11.3765 C.3     1  UNL1        0.0311
     22 C           6.9176   41.7782   10.1689 C.ar    1  UNL1       -0.0084
     23 C           6.2284   41.2640    9.0684 C.ar    1  UNL1       -0.0209
     24 C           4.7444   41.3210    9.0269 C.3     1  UNL1        0.0311
     25 C           6.9347   40.6942    8.0061 C.ar    1  UNL1        0.0119
@<TRIPOS>BOND
     1    13    14    1
     2    14    15    1
     3    14     9    1
     4     9    11   am
     5     4     8   ar
     6     5     8   ar
     7    16    17    1
     8    19    20   ar
     9    21    20    1
    10    22    23   ar
    11    24    23    1
    12    25    18   ar
    13    11     4    1
    14     6     7   ar
    15    17    18    1
    16     3     5    1
    17     3    17    1
    18     9    10    2
    19     4     6   ar
    20     5     7   ar
    21    18    19   ar
    22    20    22   ar
    23    23    25   ar
    24     3     1    2
    25     3     2    2
    26    11    12    1
@<TRIPOS>MOLECULE
MolPort-007-723-643 6818398 CHEMBL1311429 ChemDiv-E157-6969 MCULE-8039060778 PubChem-22518151 ZINC000006818398 ZINC06818398
 25 26 0 0 0
SMALL
GASTEIGER

@<TRIPOS>ATOM
      1 O          10.8741   42.3660   11.0640 O.2     1  UNL1       -0.1477
      2 O          11.0826   44.2675    9.5384 O.2     1  UNL1       -0.1477
      3 S          10.5603   42.8652    9.6817 S.O2    1  UNL1        0.1010
      4 C           6.4597   42.5691    9.3934 C.ar    1  UNL1        0.1893
      5 C           8.8266   42.8776    9.4310 C.ar    1  UNL1        0.2593
      6 N           6.8690   43.6059    8.6291 N.ar    1  UNL1       -0.1239
      7 N           8.1892   43.7780    8.6518 N.ar    1  UNL1       -0.1187
      8 S           7.7504   41.8002   10.1506 S.2     1  UNL1       -0.0102
      9 C           4.5259   41.6364   10.7471 C.2     1  UNL1        0.2271
     10 O           5.2296   41.4802   11.7826 O.2     1  UNL1       -0.2747
     11 N           5.0942   42.1709    9.5473 N.am    1  UNL1       -0.2627
     12 H           4.5004   42.2722    8.7686 H       1  UNL1        0.1568
     13 C           2.3025   42.1715   11.6915 C.3     1  UNL1        0.0096
     14 C           3.0802   41.2631   10.7586 C.3     1  UNL1        0.0769
     15 C           2.4984   41.3402    9.3601 C.3     1  UNL1        0.0096
     16 C          10.4559   40.9556    7.7167 C.3     1  UNL1        0.1392
     17 N          11.3143   41.8227    8.5120 N.pl3   1  UNL1       -0.1870
     18 C          12.7454   41.7942    8.3386 C.ar    1  UNL1        0.0683
     19 C          13.3730   42.6679    7.4340 C.ar    1  UNL1        0.0119
     20 C          14.7595   42.6384    7.2603 C.ar    1  UNL1       -0.0209
     21 C          15.4077   43.5683    6.2996 C.3     1  UNL1        0.0311
     22 C          15.5357   41.7340    7.9886 C.ar    1  UNL1       -0.0084
     23 C          14.9255   40.8604    8.8914 C.ar    1  UNL1       -0.0209
     24 C          15.7489   39.8967    9.6663 C.3     1  UNL1        0.0311
     25 C          13.5396   40.8918    9.0652 C.ar    1  UNL1        0.0119
@<TRIPOS>BOND
     1    13    14    1
     2    14    15    1
     3    14     9    1
     4     9    11   am
     5     4     8   ar
     6     5     8   ar
     7    16    17    1
     8    19    20   ar
     9    21    20    1
    10    22    23   ar
    11    24    23    1
    12    25    18   ar
    13    11     4    1
    14     6     7   ar
    15    17    18    1
    16     3     5    1
    17     3    17    1
    18     9    10    2
    19     4     6   ar
    20     5     7   ar
    21    18    19   ar
    22    20    22   ar
    23    23    25   ar
    24     3     1    2
    25     3     2    2
    26    11    12    1
@<TRIPOS>MOLECULE
MolPort-007-723-643 6818398 CHEMBL1311429 ChemDiv-E157-6969 MCULE-8039060778 PubChem-22518151 ZINC000006818398 ZINC06818398
 25 26 0 0 0
SMALL
GASTEIGER

@<TRIPOS>ATOM
      1 O          10.2970   41.6252    5.0555 O.2     1  UNL1       -0.1477
      2 O          10.2152   39.2221    4.6022 O.2     1  UNL1       -0.1477
      3 S          10.0226   40.2756    5.6571 S.O2    1  UNL1        0.1010
      4 C           6.2552   40.4046    7.3233 C.ar    1  UNL1        0.1893
      5 C           8.3702   40.2044    6.2344 C.ar    1  UNL1        0.2593
      6 N           6.2104   39.6206    6.2232 N.ar    1  UNL1       -0.1239
      7 N           7.3903   39.5106    5.6159 N.ar    1  UNL1       -0.1187
      8 S           7.8000   41.0117    7.5982 S.2     1  UNL1       -0.0102
      9 C           5.2003   41.2346    9.4773 C.2     1  UNL1        0.2271
     10 O           6.3140   41.5043   10.0055 O.2     1  UNL1       -0.2747
     11 N           5.1273   40.6908    8.1556 N.am    1  UNL1       -0.2627
     12 H           4.2330   40.4991    7.7914 H       1  UNL1        0.1568
     13 C           2.7339   41.3407    9.3122 C.3     1  UNL1        0.0096
     14 C           3.9339   41.4805   10.2291 C.3     1  UNL1        0.0769
     15 C           3.8088   40.5160   11.3929 C.3     1  UNL1        0.0096
     16 C          10.7666   38.9872    7.9605 C.3     1  UNL1        0.1392
     17 N          11.1180   40.0056    6.9803 N.pl3   1  UNL1       -0.1870
     18 C          12.3302   40.7728    7.1246 C.ar    1  UNL1        0.0683
     19 C          12.5456   41.9219    6.3445 C.ar    1  UNL1        0.0119
     20 C          13.7222   42.6641    6.4788 C.ar    1  UNL1       -0.0209
     21 C          13.9349   43.8763    5.6462 C.3     1  UNL1        0.0311
     22 C          14.6988   42.2657    7.3945 C.ar    1  UNL1       -0.0084
     23 C          14.4978   41.1262    8.1767 C.ar    1  UNL1       -0.0209
     24 C          15.5356   40.6997    9.1504 C.3     1  UNL1        0.0311
     25 C          13.3206   40.3859    8.0425 C.ar    1  UNL1        0.0119
@<TRIPOS>BOND
     1    13    14    1
     2    14    15    1
     3    14     9    1
     4     9    11   am
     5     4     8   ar
     6     5     8   ar
     7    16    17    1
     8    19    20   ar
     9    21    20    1
    10    22    23   ar
    11    24    23    1
    12    25    18   ar
    13    11     4    1
    14     6     7   ar
    15    17    18    1
    16     3     5    1
    17     3    17    1
    18     9    10    2
    19     4     6   ar
    20     5     7   ar
    21    18    19   ar
    22    20    22   ar
    23    23    25   ar
    24     3     1    2
    25     3     2    2
    26    11    12    1
@<TRIPOS>MOLECULE
MolPort-007-723-643 6818398 CHEMBL1311429 ChemDiv-E157-6969 MCULE-8039060778 PubChem-22518151 ZINC000006818398 ZINC06818398
 25 26 0 0 0
SMALL
GASTEIGER

@<TRIPOS>ATOM
      1 O          11.6766   38.9381   10.2610 O.2     1  UNL1       -0.1477
      2 O          10.5344   38.8211    8.1003 O.2     1  UNL1       -0.1477
      3 S          11.0803   39.7518    9.1471 S.O2    1  UNL1        0.1010
      4 C          14.2629   41.9553    7.7323 C.ar    1  UNL1        0.1893
      5 C          12.3130   40.7620    8.4200 C.ar    1  UNL1        0.2593
      6 N          13.1963   42.1822    6.9339 N.ar    1  UNL1       -0.1239
      7 N          12.1095   41.5152    7.3176 N.ar    1  UNL1       -0.1187
      8 S          13.8958   40.8898    8.9815 S.2     1  UNL1       -0.0102
      9 C          15.8026   43.7558    6.8218 C.2     1  UNL1        0.2271
     10 O          14.8562   44.4013    6.2929 O.2     1  UNL1       -0.2747
     11 N          15.5527   42.5441    7.5411 N.am    1  UNL1       -0.2627
     12 H          16.3272   42.0805    7.9342 H       1  UNL1        0.1568
     13 C          18.0087   43.8766    7.9355 C.3     1  UNL1        0.0096
     14 C          17.2065   44.2504    6.7038 C.3     1  UNL1        0.0769
     15 C          17.8698   43.6816    5.4642 C.3     1  UNL1        0.0096
     16 C           9.8158   41.0374   11.2128 C.3     1  UNL1        0.1392
     17 N           9.8066   40.7488    9.7852 N.pl3   1  UNL1       -0.1870
     18 C           8.7572   41.2640    8.9412 C.ar    1  UNL1        0.0683
     19 C           8.3718   42.6131    9.0236 C.ar    1  UNL1        0.0119
     20 C           7.3513   43.1135    8.2102 C.ar    1  UNL1       -0.0209
     21 C           6.9552   44.5422    8.3099 C.3     1  UNL1        0.0311
     22 C           6.7027   42.2706    7.3048 C.ar    1  UNL1       -0.0084
     23 C           7.0759   40.9280    7.2119 C.ar    1  UNL1       -0.0209
     24 C           6.3867   40.0291    6.2506 C.3     1  UNL1        0.0311
     25 C           8.0971   40.4292    8.0245 C.ar    1  UNL1        0.0119
@<TRIPOS>BOND
     1    13    14    1
     2    14    15    1
     3    14     9    1
     4     9    11   am
     5     4     8   ar
     6     5     8   ar
     7    16    17    1
     8    19    20   ar
     9    21    20    1
    10    22    23   ar
    11    24    23    1
    12    25    18   ar
    13    11     4    1
    14     6     7   ar
    15    17    18    1
    16     3     5    1
    17     3    17    1
    18     9    10    2
    19     4     6   ar
    20     5     7   ar
    21    18    19   ar
    22    20    22   ar
    23    23    25   ar
    24     3     1    2
    25     3     2    2
    26    11    12    1
@<TRIPOS>MOLECULE
MolPort-007-723-643 6818398 CHEMBL1311429 ChemDiv-E157-6969 MCULE-8039060778 PubChem-22518151 ZINC000006818398 ZINC06818398
 25 26 0 0 0
SMALL
GASTEIGER

@<TRIPOS>ATOM
      1 O          11.3596   41.7323   10.8373 O.2     1  UNL1       -0.1477
      2 O          11.7365   42.8595    8.6986 O.2     1  UNL1       -0.1477
      3 S          11.1191   41.6568    9.3557 S.O2    1  UNL1        0.1010
      4 C           7.0130   41.5467    9.0178 C.ar    1  UNL1        0.1893
      5 C           9.3978   41.6539    9.0301 C.ar    1  UNL1        0.2593
      6 N           7.5289   41.9600    7.8389 N.ar    1  UNL1       -0.1239
      7 N           8.8590   42.0207    7.8472 N.ar    1  UNL1       -0.1187
      8 S           8.2149   41.2302   10.1518 S.2     1  UNL1       -0.0102
      9 C           5.0292   41.2816   10.5786 C.2     1  UNL1        0.2271
     10 O           5.7478   41.3051   11.6155 O.2     1  UNL1       -0.2747
     11 N           5.6140   41.3981    9.2777 N.am    1  UNL1       -0.2627
     12 H           5.0075   41.3741    8.5026 H       1  UNL1        0.1568
     13 C           2.9729   42.2016   11.6019 C.3     1  UNL1        0.0096
     14 C           3.5483   41.1308   10.6950 C.3     1  UNL1        0.0769
     15 C           2.8955   41.2072    9.3281 C.3     1  UNL1        0.0096
     16 C          11.8125   39.9894    7.2922 C.3     1  UNL1        0.1392
     17 N          11.8358   40.2000    8.7333 N.pl3   1  UNL1       -0.1870
     18 C          12.4212   39.2141    9.6075 C.ar    1  UNL1        0.0683
     19 C          13.6236   39.4830   10.2839 C.ar    1  UNL1        0.0119
     20 C          14.1956   38.5268   11.1276 C.ar    1  UNL1       -0.0209
     21 C          15.4674   38.8264   11.8352 C.3     1  UNL1        0.0311
     22 C          13.5727   37.2892   11.3048 C.ar    1  UNL1       -0.0084
     23 C          12.3773   37.0087   10.6393 C.ar    1  UNL1       -0.0209
     24 C          11.7136   35.6926   10.8251 C.3     1  UNL1        0.0311
     25 C          11.8057   37.9658    9.7972 C.ar    1  UNL1        0.0119
@<TRIPOS>BOND
     1    13    14    1
     2    14    15    1
     3    14     9    1
     4     9    11   am
     5     4     8   ar
     6     5     8   ar
     7    16    17    1
     8    19    20   ar
     9    21    20    1
    10    22    23   ar
    11    24    23    1
    12    25    18   ar
    13    11     4    1
    14     6     7   ar
    15    17    18    1
    16     3     5    1
    17     3    17    1
    18     9    10    2
    19     4     6   ar
    20     5     7   ar
    21    18    19   ar
    22    20    22   ar
    23    23    25   ar
    24     3     1    2
    25     3     2    2
    26    11    12    1
@<TRIPOS>MOLECULE
MolPort-007-723-643 6818398 CHEMBL1311429 ChemDiv-E157-6969 MCULE-8039060778 PubChem-22518151 ZINC000006818398 ZINC06818398
 25 26 0 0 0
SMALL
GASTEIGER

@<TRIPOS>ATOM
      1 O           9.0976   39.6787    7.5810 O.2     1  UNL1       -0.1477
      2 O           9.3745   41.9359    6.6780 O.2     1  UNL1       -0.1477
      3 S           9.6765   41.0399    7.8466 S.O2    1  UNL1        0.1010
      4 C          13.7771   41.2030    8.2274 C.ar    1  UNL1        0.1893
      5 C          11.4140   40.9227    8.0369 C.ar    1  UNL1        0.2593
      6 N          13.3720   39.9415    8.4944 N.ar    1  UNL1       -0.1239
      7 N          12.0536   39.7865    8.3892 N.ar    1  UNL1       -0.1187
      8 S          12.4847   42.2077    7.8390 S.2     1  UNL1       -0.0102
      9 C          15.7357   42.5604    7.3539 C.2     1  UNL1        0.2271
     10 O          15.0629   43.0630    6.4123 O.2     1  UNL1       -0.2747
     11 N          15.1391   41.6386    8.2718 N.am    1  UNL1       -0.2627
     12 H          15.7092   41.2767    8.9882 H       1  UNL1        0.1568
     13 C          17.6429   43.7999    6.3803 C.3     1  UNL1        0.0096
     14 C          17.1742   42.9225    7.5251 C.3     1  UNL1        0.0769
     15 C          17.3905   43.6376    8.8450 C.3     1  UNL1        0.0096
     16 C           9.8174   41.8036   10.4765 C.3     1  UNL1        0.1392
     17 N           8.9704   41.6888    9.2971 N.pl3   1  UNL1       -0.1870
     18 C           7.5855   42.0865    9.3493 C.ar    1  UNL1        0.0683
     19 C           7.1148   43.1422    8.5498 C.ar    1  UNL1        0.0119
     20 C           5.7739   43.5330    8.6026 C.ar    1  UNL1       -0.0209
     21 C           5.2921   44.6514    7.7513 C.3     1  UNL1        0.0311
     22 C           4.8871   42.8733    9.4566 C.ar    1  UNL1       -0.0084
     23 C           5.3410   41.8221   10.2563 C.ar    1  UNL1       -0.0209
     24 C           4.4000   41.1197   11.1664 C.3     1  UNL1        0.0311
     25 C           6.6813   41.4315   10.2016 C.ar    1  UNL1        0.0119
@<TRIPOS>BOND
     1    13    14    1
     2    14    15    1
     3    14     9    1
     4     9    11   am
     5     4     8   ar
     6     5     8   ar
     7    16    17    1
     8    19    20   ar
     9    21    20    1
    10    22    23   ar
    11    24    23    1
    12    25    18   ar
    13    11     4    1
    14     6     7   ar
    15    17    18    1
    16     3     5    1
    17     3    17    1
    18     9    10    2
    19     4     6   ar
    20     5     7   ar
    21    18    19   ar
    22    20    22   ar
    23    23    25   ar
    24     3     1    2
    25     3     2    2
    26    11    12    1
