@<TRIPOS>MOLECULE
Molport-052-004-877
 27 29 0 0 0
SMALL
GASTEIGER

@<TRIPOS>ATOM
      1 C           8.5902   41.4516   14.9834 C.2     1  UNL1        0.2683
      2 N           7.9401   42.5677   15.6159 N.am    1  UNL1       -0.2633
      3 O           9.0288   40.4965   15.6802 O.2     1  UNL1       -0.2681
      4 H           7.8094   43.3852   15.0831 H       1  UNL1        0.1567
      5 C           7.1543   43.1741   18.9890 C.ar    1  UNL1        0.1995
      6 C           7.4691   42.5699   16.9716 C.ar    1  UNL1        0.1536
      7 C           6.5312   41.7226   17.5248 C.ar    1  UNL1        0.1121
      8 C           5.4174   41.4838   19.7454 C.3     1  UNL1        0.1322
      9 N           7.8559   43.4892   17.8776 N.ar    1  UNL1       -0.2075
     10 N           6.3422   42.1042   18.7998 N.ar    1  UNL1       -0.3035
     11 C           6.9240   46.0919   21.5289 C.3     1  UNL1        0.1110
     12 C           7.2776   43.9445   20.2468 C.2     1  UNL1        0.2803
     13 N           6.8193   45.3027   20.3079 N.am    1  UNL1       -0.2967
     14 O           7.7857   43.4117   21.2698 O.2     1  UNL1       -0.2668
     15 H           6.4240   45.7121   19.5045 H       1  UNL1        0.1499
     16 C           8.7797   41.4334   13.5164 C.ar    1  UNL1        0.1348
     17 C           7.7451   41.8086   12.6457 C.ar    1  UNL1        0.0238
     18 C           7.9675   41.7904   11.2689 C.ar    1  UNL1        0.0032
     19 C           9.2084   41.3978   10.7664 C.ar    1  UNL1        0.0191
     20 C          10.2271   41.0165   11.6568 C.ar    1  UNL1        0.0814
     21 N           9.9801   41.0549   12.9968 N.ar    1  UNL1       -0.2408
     22 C          11.5691   40.5945   11.1786 C.ar    1  UNL1        0.0177
     23 C          12.3907   39.7448   11.9468 C.ar    1  UNL1        0.0015
     24 C          13.6540   39.3683   11.4799 C.ar    1  UNL1        0.0000
     25 C          14.1155   39.8371   10.2484 C.ar    1  UNL1        0.0000
     26 C          13.3169   40.6886    9.4827 C.ar    1  UNL1        0.0000
     27 C          12.0533   41.0695    9.9445 C.ar    1  UNL1        0.0015
@<TRIPOS>BOND
     1    11    13    1
     2    12     5    1
     3     6     9   ar
     4     6     2    1
     5     1    16    1
     6    16    21   ar
     7    17    18   ar
     8    19    20   ar
     9    20    22    1
    10    23    24   ar
    11    25    26   ar
    12    27    22   ar
    13     7    10   ar
    14     8    10    1
    15    13    12   am
    16     2     1   am
    17    10     5   ar
    18    12    14    2
    19     5     9   ar
    20     6     7   ar
    21     1     3    2
    22    16    17   ar
    23    18    19   ar
    24    20    21   ar
    25    22    23   ar
    26    24    25   ar
    27    26    27   ar
    28    13    15    1
    29     2     4    1
@<TRIPOS>MOLECULE
Molport-052-004-877
 27 29 0 0 0
SMALL
GASTEIGER

@<TRIPOS>ATOM
      1 C          10.5272   41.3600    6.6181 C.2     1  UNL1        0.2683
      2 N          11.2971   41.3802    7.8327 N.am    1  UNL1       -0.2633
      3 O          11.0299   41.7859    5.5429 O.2     1  UNL1       -0.2681
      4 H          10.8171   41.2534    8.6828 H       1  UNL1        0.1567
      5 C          14.6413   42.4422    7.6063 C.ar    1  UNL1        0.1995
      6 C          12.7181   41.5728    7.8888 C.ar    1  UNL1        0.1536
      7 C          13.6265   40.8357    8.6205 C.ar    1  UNL1        0.1121
      8 C          16.0855   40.9225    9.0385 C.3     1  UNL1        0.1322
      9 N          13.3430   42.5878    7.2603 N.ar    1  UNL1       -0.2075
     10 N          14.8391   41.3845    8.4323 N.ar    1  UNL1       -0.3035
     11 C          18.1445   43.9318    6.8807 C.3     1  UNL1        0.1110
     12 C          15.6956   43.3637    7.1267 C.2     1  UNL1        0.2803
     13 N          17.0792   43.0489    7.3392 N.am    1  UNL1       -0.2967
     14 O          15.3835   44.4290    6.5297 O.2     1  UNL1       -0.2668
     15 H          17.3150   42.2153    7.8068 H       1  UNL1        0.1499
     16 C           9.1305   40.8728    6.6294 C.ar    1  UNL1        0.1348
     17 C           8.6189   40.1095    5.5687 C.ar    1  UNL1        0.0238
     18 C           7.3005   39.6578    5.6229 C.ar    1  UNL1        0.0032
     19 C           6.4997   39.9684    6.7223 C.ar    1  UNL1        0.0191
     20 C           7.0301   40.7428    7.7688 C.ar    1  UNL1        0.0814
     21 N           8.3253   41.1601    7.6893 N.ar    1  UNL1       -0.2408
     22 C           6.2255   41.0996    8.9659 C.ar    1  UNL1        0.0177
     23 C           4.8165   41.1199    8.9267 C.ar    1  UNL1        0.0015
     24 C           4.0807   41.4676   10.0638 C.ar    1  UNL1        0.0000
     25 C           4.7375   41.8044   11.2489 C.ar    1  UNL1        0.0000
     26 C           6.1327   41.7998   11.2984 C.ar    1  UNL1        0.0000
     27 C           6.8742   41.4539   10.1646 C.ar    1  UNL1        0.0015
@<TRIPOS>BOND
     1    11    13    1
     2    12     5    1
     3     6     9   ar
     4     6     2    1
     5     1    16    1
     6    16    21   ar
     7    17    18   ar
     8    19    20   ar
     9    20    22    1
    10    23    24   ar
    11    25    26   ar
    12    27    22   ar
    13     7    10   ar
    14     8    10    1
    15    13    12   am
    16     2     1   am
    17    10     5   ar
    18    12    14    2
    19     5     9   ar
    20     6     7   ar
    21     1     3    2
    22    16    17   ar
    23    18    19   ar
    24    20    21   ar
    25    22    23   ar
    26    24    25   ar
    27    26    27   ar
    28    13    15    1
    29     2     4    1
@<TRIPOS>MOLECULE
Molport-052-004-877
 27 29 0 0 0
SMALL
GASTEIGER

@<TRIPOS>ATOM
      1 C           8.5406   41.8799   14.6648 C.2     1  UNL1        0.2683
      2 N           9.3374   41.0616   13.7908 N.am    1  UNL1       -0.2633
      3 O           8.4726   43.1252   14.4783 O.2     1  UNL1       -0.2681
      4 H           9.5482   40.1459   14.0848 H       1  UNL1        0.1567
      5 C          10.8708   41.4658   10.6527 C.ar    1  UNL1        0.1995
      6 C           9.8460   41.4899   12.5191 C.ar    1  UNL1        0.1536
      7 C           9.5214   42.6487   11.8440 C.ar    1  UNL1        0.1121
      8 C          10.1035   43.6638    9.6395 C.3     1  UNL1        0.1322
      9 N          10.6809   40.7378   11.7755 N.ar    1  UNL1       -0.2075
     10 N          10.1769   42.6312   10.6704 N.ar    1  UNL1       -0.3035
     11 C          11.9730   39.9751    7.2497 C.3     1  UNL1        0.1110
     12 C          11.7364   41.0008    9.5458 C.2     1  UNL1        0.2803
     13 N          11.1526   40.4430    8.3599 N.am    1  UNL1       -0.2967
     14 O          12.9901   41.0921    9.6395 O.2     1  UNL1       -0.2668
     15 H          10.1727   40.3744    8.2943 H       1  UNL1        0.1499
     16 C           7.8248   41.2718   15.8077 C.ar    1  UNL1        0.1348
     17 C           7.5985   39.8882   15.8698 C.ar    1  UNL1        0.0238
     18 C           6.9310   39.3517   16.9706 C.ar    1  UNL1        0.0032
     19 C           6.4902   40.1880   17.9967 C.ar    1  UNL1        0.0191
     20 C           6.7191   41.5722   17.9086 C.ar    1  UNL1        0.0814
     21 N           7.3831   42.0630   16.8240 N.ar    1  UNL1       -0.2408
     22 C           6.2768   42.5094   18.9734 C.ar    1  UNL1        0.0177
     23 C           7.1628   42.9583   19.9737 C.ar    1  UNL1        0.0015
     24 C           6.7212   43.8334   20.9709 C.ar    1  UNL1        0.0000
     25 C           5.3939   44.2661   20.9876 C.ar    1  UNL1        0.0000
     26 C           4.5027   43.8202   20.0098 C.ar    1  UNL1        0.0000
     27 C           4.9379   42.9443   19.0105 C.ar    1  UNL1        0.0015
@<TRIPOS>BOND
     1    11    13    1
     2    12     5    1
     3     6     9   ar
     4     6     2    1
     5     1    16    1
     6    16    21   ar
     7    17    18   ar
     8    19    20   ar
     9    20    22    1
    10    23    24   ar
    11    25    26   ar
    12    27    22   ar
    13     7    10   ar
    14     8    10    1
    15    13    12   am
    16     2     1   am
    17    10     5   ar
    18    12    14    2
    19     5     9   ar
    20     6     7   ar
    21     1     3    2
    22    16    17   ar
    23    18    19   ar
    24    20    21   ar
    25    22    23   ar
    26    24    25   ar
    27    26    27   ar
    28    13    15    1
    29     2     4    1
@<TRIPOS>MOLECULE
Molport-052-004-877
 27 29 0 0 0
SMALL
GASTEIGER

@<TRIPOS>ATOM
      1 C          10.2741   40.9128    9.1981 C.2     1  UNL1        0.2683
      2 N          10.3609   39.5079    9.4935 N.am    1  UNL1       -0.2633
      3 O          11.2284   41.6820    9.4944 O.2     1  UNL1       -0.2681
      4 H           9.5314   38.9789    9.4567 H       1  UNL1        0.1567
      5 C          13.5325   38.4641   10.5954 C.ar    1  UNL1        0.1995
      6 C          11.5752   38.8254    9.8385 C.ar    1  UNL1        0.1536
      7 C          11.8158   37.4692    9.7574 C.ar    1  UNL1        0.1121
      8 C          13.7045   35.9442   10.3374 C.3     1  UNL1        0.1322
      9 N          12.6401   39.4546   10.3732 N.ar    1  UNL1       -0.2075
     10 N          13.0550   37.2484   10.2294 N.ar    1  UNL1       -0.3035
     11 C          17.2987   39.3285   10.8897 C.3     1  UNL1        0.1110
     12 C          14.8654   38.7187   11.1863 C.2     1  UNL1        0.2803
     13 N          15.9721   39.0702   10.3436 N.am    1  UNL1       -0.2967
     14 O          15.0351   38.6278   12.4320 O.2     1  UNL1       -0.2668
     15 H          15.8319   39.1388    9.3715 H       1  UNL1        0.1499
     16 C           9.0522   41.4695    8.5774 C.ar    1  UNL1        0.1348
     17 C           9.0718   41.9894    7.2741 C.ar    1  UNL1        0.0238
     18 C           7.8956   42.4935    6.7195 C.ar    1  UNL1        0.0032
     19 C           6.7130   42.4827    7.4597 C.ar    1  UNL1        0.0191
     20 C           6.7189   41.9661    8.7671 C.ar    1  UNL1        0.0814
     21 N           7.8832   41.4722    9.2756 N.ar    1  UNL1       -0.2408
     22 C           5.4887   41.9245    9.5993 C.ar    1  UNL1        0.0177
     23 C           5.4628   41.2598   10.8421 C.ar    1  UNL1        0.0015
     24 C           4.2905   41.2265   11.6037 C.ar    1  UNL1        0.0000
     25 C           3.1312   41.8478   11.1353 C.ar    1  UNL1        0.0000
     26 C           3.1397   42.4996    9.9007 C.ar    1  UNL1        0.0000
     27 C           4.3084   42.5357    9.1340 C.ar    1  UNL1        0.0015
@<TRIPOS>BOND
     1    11    13    1
     2    12     5    1
     3     6     9   ar
     4     6     2    1
     5     1    16    1
     6    16    21   ar
     7    17    18   ar
     8    19    20   ar
     9    20    22    1
    10    23    24   ar
    11    25    26   ar
    12    27    22   ar
    13     7    10   ar
    14     8    10    1
    15    13    12   am
    16     2     1   am
    17    10     5   ar
    18    12    14    2
    19     5     9   ar
    20     6     7   ar
    21     1     3    2
    22    16    17   ar
    23    18    19   ar
    24    20    21   ar
    25    22    23   ar
    26    24    25   ar
    27    26    27   ar
    28    13    15    1
    29     2     4    1
@<TRIPOS>MOLECULE
Molport-052-004-877
 27 29 0 0 0
SMALL
GASTEIGER

@<TRIPOS>ATOM
      1 C          10.8194   41.1507   10.1166 C.2     1  UNL1        0.2683
      2 N          11.2324   41.7265    8.8651 N.am    1  UNL1       -0.2633
      3 O          11.6233   40.4454   10.7848 O.2     1  UNL1       -0.2681
      4 H          10.5328   42.0788    8.2687 H       1  UNL1        0.1567
      5 C          14.3250   42.4657    7.3643 C.ar    1  UNL1        0.1995
      6 C          12.5957   41.8221    8.4272 C.ar    1  UNL1        0.1536
      7 C          13.6918   41.1977    8.9862 C.ar    1  UNL1        0.1121
      8 C          16.1544   41.1931    8.5809 C.3     1  UNL1        0.1322
      9 N          12.9842   42.6270    7.4188 N.ar    1  UNL1       -0.2075
     10 N          14.7789   41.6019    8.3066 N.ar    1  UNL1       -0.3035
     11 C          17.4263   44.0792    5.6922 C.3     1  UNL1        0.1110
     12 C          15.1680   43.1806    6.3800 C.2     1  UNL1        0.2803
     13 N          16.5651   43.3804    6.6382 N.am    1  UNL1       -0.2967
     14 O          14.6632   43.6175    5.3110 O.2     1  UNL1       -0.2668
     15 H          16.9521   43.0367    7.4756 H       1  UNL1        0.1499
     16 C           9.4396   41.3526   10.6103 C.ar    1  UNL1        0.1348
     17 C           9.0426   40.8794   11.8704 C.ar    1  UNL1        0.0238
     18 C           7.7361   41.1013   12.3054 C.ar    1  UNL1        0.0032
     19 C           6.8341   41.7845   11.4893 C.ar    1  UNL1        0.0191
     20 C           7.2508   42.2408   10.2267 C.ar    1  UNL1        0.0814
     21 N           8.5372   42.0161    9.8359 N.ar    1  UNL1       -0.2408
     22 C           6.3352   42.9782    9.3180 C.ar    1  UNL1        0.0177
     23 C           4.9479   43.0380    9.5606 C.ar    1  UNL1        0.0015
     24 C           4.1047   43.7307    8.6862 C.ar    1  UNL1        0.0000
     25 C           4.6306   44.3652    7.5592 C.ar    1  UNL1        0.0000
     26 C           6.0012   44.3040    7.3005 C.ar    1  UNL1        0.0000
     27 C           6.8494   43.6122    8.1705 C.ar    1  UNL1        0.0015
@<TRIPOS>BOND
     1    11    13    1
     2    12     5    1
     3     6     9   ar
     4     6     2    1
     5     1    16    1
     6    16    21   ar
     7    17    18   ar
     8    19    20   ar
     9    20    22    1
    10    23    24   ar
    11    25    26   ar
    12    27    22   ar
    13     7    10   ar
    14     8    10    1
    15    13    12   am
    16     2     1   am
    17    10     5   ar
    18    12    14    2
    19     5     9   ar
    20     6     7   ar
    21     1     3    2
    22    16    17   ar
    23    18    19   ar
    24    20    21   ar
    25    22    23   ar
    26    24    25   ar
    27    26    27   ar
    28    13    15    1
    29     2     4    1
@<TRIPOS>MOLECULE
Molport-052-004-877
 27 29 0 0 0
SMALL
GASTEIGER

@<TRIPOS>ATOM
      1 C          10.5498   40.7413    8.7164 C.2     1  UNL1        0.2683
      2 N          11.6622   40.1147    8.0544 N.am    1  UNL1       -0.2633
      3 O          10.7121   41.3006    9.8349 O.2     1  UNL1       -0.2681
      4 H          11.4672   39.5053    7.3061 H       1  UNL1        0.1567
      5 C          14.9753   39.9732    9.2232 C.ar    1  UNL1        0.1995
      6 C          13.0373   40.3181    8.4111 C.ar    1  UNL1        0.1536
      7 C          13.8593   41.3443    7.9927 C.ar    1  UNL1        0.1121
      8 C          16.2558   41.9657    8.3086 C.3     1  UNL1        0.1322
      9 N          13.7307   39.4487    9.1721 N.ar    1  UNL1       -0.2075
     10 N          15.0787   41.1251    8.5144 N.ar    1  UNL1       -0.3035
     11 C          18.5498   39.0652   10.4133 C.3     1  UNL1        0.1110
     12 C          16.0767   39.3243    9.9692 C.2     1  UNL1        0.2803
     13 N          17.4394   39.6825    9.6986 N.am    1  UNL1       -0.2967
     14 O          15.8233   38.4541   10.8451 O.2     1  UNL1       -0.2668
     15 H          17.6294   40.3626    9.0127 H       1  UNL1        0.1499
     16 C           9.2023   40.7030    8.1070 C.ar    1  UNL1        0.1348
     17 C           9.0167   40.2839    6.7807 C.ar    1  UNL1        0.0238
     18 C           7.7288   40.2495    6.2466 C.ar    1  UNL1        0.0032
     19 C           6.6379   40.6336    7.0270 C.ar    1  UNL1        0.0191
     20 C           6.8485   41.0594    8.3500 C.ar    1  UNL1        0.0814
     21 N           8.1187   41.0719    8.8445 N.ar    1  UNL1       -0.2408
     22 C           5.7243   41.4748    9.2284 C.ar    1  UNL1        0.0177
     23 C           5.6893   41.1262   10.5938 C.ar    1  UNL1        0.0015
     24 C           4.6162   41.5210   11.3988 C.ar    1  UNL1        0.0000
     25 C           3.5648   42.2603   10.8538 C.ar    1  UNL1        0.0000
     26 C           3.5809   42.6024    9.5003 C.ar    1  UNL1        0.0000
     27 C           4.6506   42.2098    8.6900 C.ar    1  UNL1        0.0015
@<TRIPOS>BOND
     1    11    13    1
     2    12     5    1
     3     6     9   ar
     4     6     2    1
     5     1    16    1
     6    16    21   ar
     7    17    18   ar
     8    19    20   ar
     9    20    22    1
    10    23    24   ar
    11    25    26   ar
    12    27    22   ar
    13     7    10   ar
    14     8    10    1
    15    13    12   am
    16     2     1   am
    17    10     5   ar
    18    12    14    2
    19     5     9   ar
    20     6     7   ar
    21     1     3    2
    22    16    17   ar
    23    18    19   ar
    24    20    21   ar
    25    22    23   ar
    26    24    25   ar
    27    26    27   ar
    28    13    15    1
    29     2     4    1
@<TRIPOS>MOLECULE
Molport-052-004-877
 27 29 0 0 0
SMALL
GASTEIGER

@<TRIPOS>ATOM
      1 C          11.4972   40.7025   10.3557 C.2     1  UNL1        0.2683
      2 N          12.1344   39.5735   10.9784 N.am    1  UNL1       -0.2633
      3 O          12.0878   41.3370    9.4398 O.2     1  UNL1       -0.2681
      4 H          11.7550   39.2408   11.8238 H       1  UNL1        0.1567
      5 C          15.2881   38.2050   10.2406 C.ar    1  UNL1        0.1995
      6 C          13.2860   38.8994   10.4504 C.ar    1  UNL1        0.1536
      7 C          13.3114   37.9911    9.4121 C.ar    1  UNL1        0.1121
      8 C          15.0466   36.5791    8.3056 C.3     1  UNL1        0.1322
      9 N          14.5170   39.0304   10.9827 N.ar    1  UNL1       -0.2075
     10 N          14.5786   37.5622    9.2797 N.ar    1  UNL1       -0.3035
     11 C          19.1206   38.7381   10.0272 C.3     1  UNL1        0.1110
     12 C          16.7376   38.0400   10.4903 C.2     1  UNL1        0.2803
     13 N          17.6859   38.8715    9.8065 N.am    1  UNL1       -0.2967
     14 O          17.1460   37.1685   11.3042 O.2     1  UNL1       -0.2668
     15 H          17.3593   39.5497    9.1719 H       1  UNL1        0.1499
     16 C          10.1614   41.1478   10.8091 C.ar    1  UNL1        0.1348
     17 C           9.7566   40.9878   12.1433 C.ar    1  UNL1        0.0238
     18 C           8.4939   41.4326   12.5344 C.ar    1  UNL1        0.0032
     19 C           7.6425   42.0270   11.6027 C.ar    1  UNL1        0.0191
     20 C           8.0650   42.1680   10.2694 C.ar    1  UNL1        0.0814
     21 N           9.3089   41.7316    9.9223 N.ar    1  UNL1       -0.2408
     22 C           7.2028   42.7976    9.2360 C.ar    1  UNL1        0.0177
     23 C           7.7381   43.2785    8.0239 C.ar    1  UNL1        0.0015
     24 C           6.9081   43.8756    7.0699 C.ar    1  UNL1        0.0000
     25 C           5.5396   44.0062    7.3136 C.ar    1  UNL1        0.0000
     26 C           4.9980   43.5449    8.5149 C.ar    1  UNL1        0.0000
     27 C           5.8228   42.9478    9.4731 C.ar    1  UNL1        0.0015
@<TRIPOS>BOND
     1    11    13    1
     2    12     5    1
     3     6     9   ar
     4     6     2    1
     5     1    16    1
     6    16    21   ar
     7    17    18   ar
     8    19    20   ar
     9    20    22    1
    10    23    24   ar
    11    25    26   ar
    12    27    22   ar
    13     7    10   ar
    14     8    10    1
    15    13    12   am
    16     2     1   am
    17    10     5   ar
    18    12    14    2
    19     5     9   ar
    20     6     7   ar
    21     1     3    2
    22    16    17   ar
    23    18    19   ar
    24    20    21   ar
    25    22    23   ar
    26    24    25   ar
    27    26    27   ar
    28    13    15    1
    29     2     4    1
@<TRIPOS>MOLECULE
Molport-052-004-877
 27 29 0 0 0
SMALL
GASTEIGER

@<TRIPOS>ATOM
      1 C          13.6202   39.2727    8.5336 C.2     1  UNL1        0.2683
      2 N          12.4134   39.6479    9.2201 N.am    1  UNL1       -0.2633
      3 O          13.5615   38.5695    7.4886 O.2     1  UNL1       -0.2681
      4 H          12.4964   40.0001   10.1356 H       1  UNL1        0.1567
      5 C           9.3124   40.0454    7.6110 C.ar    1  UNL1        0.1995
      6 C          11.0961   39.5433    8.6601 C.ar    1  UNL1        0.1536
      7 C          10.3032   38.4152    8.6112 C.ar    1  UNL1        0.1121
      8 C           8.0684   37.8327    7.6649 C.3     1  UNL1        0.1322
      9 N          10.4889   40.5655    8.0259 N.ar    1  UNL1       -0.2075
     10 N           9.1760   38.7402    7.9546 N.ar    1  UNL1       -0.3035
     11 C           6.1015   42.0505    6.7818 C.3     1  UNL1        0.1110
     12 C           8.3180   40.8414    6.8572 C.2     1  UNL1        0.2803
     13 N           7.1033   41.2654    7.4922 N.am    1  UNL1       -0.2967
     14 O           8.5329   41.1503    5.6543 O.2     1  UNL1       -0.2668
     15 H           6.9423   41.0198    8.4319 H       1  UNL1        0.1499
     16 C          14.9384   39.6793    9.0680 C.ar    1  UNL1        0.1348
     17 C          15.5517   38.9654   10.1089 C.ar    1  UNL1        0.0238
     18 C          16.8010   39.3728   10.5762 C.ar    1  UNL1        0.0032
     19 C          17.4296   40.4840   10.0134 C.ar    1  UNL1        0.0191
     20 C          16.7921   41.1900    8.9785 C.ar    1  UNL1        0.0814
     21 N          15.5759   40.7596    8.5383 N.ar    1  UNL1       -0.2408
     22 C          17.4164   42.3769    8.3386 C.ar    1  UNL1        0.0177
     23 C          18.7476   42.7481    8.6163 C.ar    1  UNL1        0.0015
     24 C          19.3108   43.8746    8.0087 C.ar    1  UNL1        0.0000
     25 C          18.5551   44.6466    7.1244 C.ar    1  UNL1        0.0000
     26 C          17.2317   44.2972    6.8493 C.ar    1  UNL1        0.0000
     27 C          16.6625   43.1725    7.4544 C.ar    1  UNL1        0.0015
@<TRIPOS>BOND
     1    11    13    1
     2    12     5    1
     3     6     9   ar
     4     6     2    1
     5     1    16    1
     6    16    21   ar
     7    17    18   ar
     8    19    20   ar
     9    20    22    1
    10    23    24   ar
    11    25    26   ar
    12    27    22   ar
    13     7    10   ar
    14     8    10    1
    15    13    12   am
    16     2     1   am
    17    10     5   ar
    18    12    14    2
    19     5     9   ar
    20     6     7   ar
    21     1     3    2
    22    16    17   ar
    23    18    19   ar
    24    20    21   ar
    25    22    23   ar
    26    24    25   ar
    27    26    27   ar
    28    13    15    1
    29     2     4    1
@<TRIPOS>MOLECULE
Molport-052-004-877
 27 29 0 0 0
SMALL
GASTEIGER

@<TRIPOS>ATOM
      1 C          11.5481   41.2554    9.7408 C.2     1  UNL1        0.2683
      2 N          11.8245   40.2778   10.7587 N.am    1  UNL1       -0.2633
      3 O          12.2998   41.3494    8.7327 O.2     1  UNL1       -0.2681
      4 H          11.3635   40.3724   11.6235 H       1  UNL1        0.1567
      5 C          14.5060   38.0052   10.6685 C.ar    1  UNL1        0.1995
      6 C          12.7271   39.1736   10.5987 C.ar    1  UNL1        0.1536
      7 C          12.4074   37.8930   10.1965 C.ar    1  UNL1        0.1121
      8 C          13.6424   35.7444    9.9010 C.3     1  UNL1        0.1322
      9 N          14.0365   39.2499   10.9076 N.ar    1  UNL1       -0.2075
     10 N          13.5352   37.1625   10.2355 N.ar    1  UNL1       -0.3035
     11 C          18.2857   37.4725    9.9992 C.3     1  UNL1        0.1110
     12 C          15.9247   37.6410   10.8812 C.2     1  UNL1        0.2803
     13 N          16.8805   37.8195    9.8262 N.am    1  UNL1       -0.2967
     14 O          16.3000   37.1720   11.9893 O.2     1  UNL1       -0.2668
     15 H          16.5797   38.1858    8.9633 H       1  UNL1        0.1499
     16 C          10.4022   42.1795    9.8868 C.ar    1  UNL1        0.1348
     17 C          10.5944   43.5669    9.9736 C.ar    1  UNL1        0.0238
     18 C           9.4871   44.4058   10.0976 C.ar    1  UNL1        0.0032
     19 C           8.2016   43.8652   10.1387 C.ar    1  UNL1        0.0191
     20 C           8.0334   42.4718   10.0601 C.ar    1  UNL1        0.0814
     21 N           9.1358   41.6808    9.9297 N.ar    1  UNL1       -0.2408
     22 C           6.6884   41.8412   10.0938 C.ar    1  UNL1        0.0177
     23 C           5.9115   41.7011    8.9259 C.ar    1  UNL1        0.0015
     24 C           4.6445   41.1123    8.9839 C.ar    1  UNL1        0.0000
     25 C           4.1345   40.6628   10.2033 C.ar    1  UNL1        0.0000
     26 C           4.8884   40.8060   11.3697 C.ar    1  UNL1        0.0000
     27 C           6.1556   41.3947   11.3185 C.ar    1  UNL1        0.0015
@<TRIPOS>BOND
     1    11    13    1
     2    12     5    1
     3     6     9   ar
     4     6     2    1
     5     1    16    1
     6    16    21   ar
     7    17    18   ar
     8    19    20   ar
     9    20    22    1
    10    23    24   ar
    11    25    26   ar
    12    27    22   ar
    13     7    10   ar
    14     8    10    1
    15    13    12   am
    16     2     1   am
    17    10     5   ar
    18    12    14    2
    19     5     9   ar
    20     6     7   ar
    21     1     3    2
    22    16    17   ar
    23    18    19   ar
    24    20    21   ar
    25    22    23   ar
    26    24    25   ar
    27    26    27   ar
    28    13    15    1
    29     2     4    1
@<TRIPOS>MOLECULE
Molport-052-004-877
 27 29 0 0 0
SMALL
GASTEIGER

@<TRIPOS>ATOM
      1 C          10.8305   41.0502    7.8228 C.2     1  UNL1        0.2683
      2 N          11.9099   41.1597    6.8787 N.am    1  UNL1       -0.2633
      3 O          11.0599   41.1392    9.0596 O.2     1  UNL1       -0.2681
      4 H          11.7412   40.8703    5.9529 H       1  UNL1        0.1567
      5 C          15.1806   41.7837    8.0082 C.ar    1  UNL1        0.1995
      6 C          13.2162   41.6625    7.1953 C.ar    1  UNL1        0.1536
      7 C          13.8213   42.7865    6.6717 C.ar    1  UNL1        0.1121
      8 C          16.0466   43.8945    6.8942 C.3     1  UNL1        0.1322
      9 N          14.0643   41.0220    8.0238 N.ar    1  UNL1       -0.2075
     10 N          15.0577   42.8617    7.1940 N.ar    1  UNL1       -0.3035
     11 C          17.6649   39.7725   10.1993 C.3     1  UNL1        0.1110
     12 C          16.3852   41.4374    8.7954 C.2     1  UNL1        0.2803
     13 N          16.4939   40.1489    9.4170 N.am    1  UNL1       -0.2967
     14 O          17.3207   42.2722    8.9239 O.2     1  UNL1       -0.2668
     15 H          15.7588   39.5024    9.3126 H       1  UNL1        0.1499
     16 C           9.4512   40.7978    7.3516 C.ar    1  UNL1        0.1348
     17 C           9.1498   39.6868    6.5490 C.ar    1  UNL1        0.0238
     18 C           7.8344   39.4763    6.1358 C.ar    1  UNL1        0.0032
     19 C           6.8311   40.3680    6.5162 C.ar    1  UNL1        0.0191
     20 C           7.1577   41.4796    7.3123 C.ar    1  UNL1        0.0814
     21 N           8.4511   41.6507    7.7071 N.ar    1  UNL1       -0.2408
     22 C           6.1298   42.4586    7.7515 C.ar    1  UNL1        0.0177
     23 C           6.0691   43.7569    7.2059 C.ar    1  UNL1        0.0015
     24 C           5.0982   44.6641    7.6416 C.ar    1  UNL1        0.0000
     25 C           4.1825   44.2924    8.6277 C.ar    1  UNL1        0.0000
     26 C           4.2387   43.0136    9.1850 C.ar    1  UNL1        0.0000
     27 C           5.2076   42.1022    8.7544 C.ar    1  UNL1        0.0015
@<TRIPOS>BOND
     1    11    13    1
     2    12     5    1
     3     6     9   ar
     4     6     2    1
     5     1    16    1
     6    16    21   ar
     7    17    18   ar
     8    19    20   ar
     9    20    22    1
    10    23    24   ar
    11    25    26   ar
    12    27    22   ar
    13     7    10   ar
    14     8    10    1
    15    13    12   am
    16     2     1   am
    17    10     5   ar
    18    12    14    2
    19     5     9   ar
    20     6     7   ar
    21     1     3    2
    22    16    17   ar
    23    18    19   ar
    24    20    21   ar
    25    22    23   ar
    26    24    25   ar
    27    26    27   ar
    28    13    15    1
    29     2     4    1
