@<TRIPOS>MOLECULE
MolPort-020-278-653 MCULE-6054173363 PubChem-110255525
 27 30 0 0 0
SMALL
GASTEIGER

@<TRIPOS>ATOM
      1 C          13.3548   39.5088   11.3939 C.3     1  UNL1        0.0522
      2 C          12.8732   40.0401   10.0926 C.ar    1  UNL1        0.0635
      3 C          13.7608   40.6776    9.2286 C.ar    1  UNL1        0.0492
      4 C          13.2793   41.1676    8.0100 C.ar    1  UNL1        0.1368
      5 C          11.1094   40.3848    8.5570 C.ar    1  UNL1        0.1414
      6 N          11.9642   41.0088    7.7040 N.ar    1  UNL1       -0.2158
      7 N          11.5680   39.9042    9.7448 N.ar    1  UNL1       -0.2348
      8 C           9.6741   40.2314    8.1783 C.3     1  UNL1        0.0785
      9 C           9.5241   40.1234    6.6593 C.3     1  UNL1        0.0110
     10 C           8.0532   39.9640    6.2797 C.3     1  UNL1        0.0220
     11 C           7.2471   41.1458    6.8101 C.3     1  UNL1        0.0936
     12 C           8.8485   41.3986    8.7190 C.3     1  UNL1        0.1011
     13 N           7.4717   41.2812    8.2467 N.pl3   1  UNL1       -0.2778
     14 C           6.3743   41.2691    9.1700 C.ar    1  UNL1        0.2202
     15 C           5.5709   41.4280   11.3928 C.ar    1  UNL1        0.1034
     16 C           4.2638   41.2431   10.9465 C.ar    1  UNL1        0.0414
     17 C           4.0498   41.0716    9.5804 C.ar    1  UNL1        0.1034
     18 N           6.5974   41.4378   10.5030 N.ar    1  UNL1       -0.2121
     19 N           5.1015   41.0873    8.7208 N.ar    1  UNL1       -0.2121
     20 N          14.1332   41.8347    7.0696 N.pl3   1  UNL1       -0.2679
     21 H          13.8459   41.8116    6.1283 H       1  UNL1        0.1565
     22 C          15.3568   42.5312    7.3423 C.ar    1  UNL1        0.2218
     23 C          16.7249   44.4280    6.9786 C.ar    1  UNL1        0.1034
     24 C          17.6944   43.9092    7.8345 C.ar    1  UNL1        0.0414
     25 C          17.4526   42.6758    8.4357 C.ar    1  UNL1        0.1034
     26 N          15.5797   43.7339    6.7489 N.ar    1  UNL1       -0.2120
     27 N          16.2951   42.0119    8.1809 N.ar    1  UNL1       -0.2120
@<TRIPOS>BOND
     1     1     2    1
     2     2     7   ar
     3     3     4   ar
     4     4    20    1
     5     5     6   ar
     6     8     5    1
     7     8     9    1
     8     9    10    1
     9    10    11    1
    10    11    13    1
    11    12    13    1
    12    12     8    1
    13    14    19   ar
    14    15    18   ar
    15    16    17   ar
    16    22    27   ar
    17    23    26   ar
    18    24    25   ar
    19    13    14    1
    20    20    22    1
    21     2     3   ar
    22     4     6   ar
    23     5     7   ar
    24    14    18   ar
    25    15    16   ar
    26    17    19   ar
    27    22    26   ar
    28    23    24   ar
    29    25    27   ar
    30    20    21    1
@<TRIPOS>MOLECULE
MolPort-020-278-653 MCULE-6054173363 PubChem-110255525
 27 30 0 0 0
SMALL
GASTEIGER

@<TRIPOS>ATOM
      1 C          13.7853   39.2888   11.1315 C.3     1  UNL1        0.0522
      2 C          12.9738   40.2106   10.2952 C.ar    1  UNL1        0.0635
      3 C          13.4608   40.6467    9.0650 C.ar    1  UNL1        0.0492
      4 C          12.6747   41.5141    8.2990 C.ar    1  UNL1        0.1368
      5 C          11.0003   41.4722    9.9767 C.ar    1  UNL1        0.1414
      6 N          11.4626   41.9056    8.7742 N.ar    1  UNL1       -0.2158
      7 N          11.7571   40.6279   10.7295 N.ar    1  UNL1       -0.2348
      8 C           9.6625   41.9267   10.4575 C.3     1  UNL1        0.0785
      9 C           9.3537   41.3365   11.8350 C.3     1  UNL1        0.0110
     10 C           7.9847   41.8080   12.3213 C.3     1  UNL1        0.0220
     11 C           6.9082   41.4056   11.3180 C.3     1  UNL1        0.0936
     12 C           8.5741   41.5479    9.4533 C.3     1  UNL1        0.1011
     13 N           7.2663   41.9075    9.9941 N.pl3   1  UNL1       -0.2778
     14 C           6.3720   42.7540    9.2586 C.ar    1  UNL1        0.2202
     15 C           4.1985   43.6367    8.9307 C.ar    1  UNL1        0.1034
     16 C           4.6513   44.3800    7.8424 C.ar    1  UNL1        0.0414
     17 C           5.9951   44.2810    7.4876 C.ar    1  UNL1        0.1034
     18 N           5.0607   42.8415    9.6160 N.ar    1  UNL1       -0.2121
     19 N           6.8274   43.4751    8.1968 N.ar    1  UNL1       -0.2121
     20 N          13.1093   42.0048    7.0228 N.pl3   1  UNL1       -0.2679
     21 H          12.6215   41.6666    6.2373 H       1  UNL1        0.1565
     22 C          14.1719   42.9310    6.7589 C.ar    1  UNL1        0.2218
     23 C          14.8909   44.9425    5.7398 C.ar    1  UNL1        0.1034
     24 C          16.1821   44.7417    6.2237 C.ar    1  UNL1        0.0414
     25 C          16.4318   43.6020    6.9854 C.ar    1  UNL1        0.1034
     26 N          13.9142   44.0389    6.0143 N.ar    1  UNL1       -0.2120
     27 N          15.4287   42.7215    7.2384 N.ar    1  UNL1       -0.2120
@<TRIPOS>BOND
     1     1     2    1
     2     2     7   ar
     3     3     4   ar
     4     4    20    1
     5     5     6   ar
     6     8     5    1
     7     8     9    1
     8     9    10    1
     9    10    11    1
    10    11    13    1
    11    12    13    1
    12    12     8    1
    13    14    19   ar
    14    15    18   ar
    15    16    17   ar
    16    22    27   ar
    17    23    26   ar
    18    24    25   ar
    19    13    14    1
    20    20    22    1
    21     2     3   ar
    22     4     6   ar
    23     5     7   ar
    24    14    18   ar
    25    15    16   ar
    26    17    19   ar
    27    22    26   ar
    28    23    24   ar
    29    25    27   ar
    30    20    21    1
@<TRIPOS>MOLECULE
MolPort-020-278-653 MCULE-6054173363 PubChem-110255525
 27 30 0 0 0
SMALL
GASTEIGER

@<TRIPOS>ATOM
      1 C          11.5190   35.6308   11.0086 C.3     1  UNL1        0.0522
      2 C          12.5445   36.4303   10.2897 C.ar    1  UNL1        0.0635
      3 C          13.6783   35.8069    9.7733 C.ar    1  UNL1        0.0492
      4 C          14.6269   36.5848    9.1008 C.ar    1  UNL1        0.1368
      5 C          13.3060   38.5165    9.4800 C.ar    1  UNL1        0.1414
      6 N          14.4170   37.9217    8.9706 N.ar    1  UNL1       -0.2158
      7 N          12.3769   37.7687   10.1356 N.ar    1  UNL1       -0.2348
      8 C          13.1163   39.9872    9.3113 C.3     1  UNL1        0.0785
      9 C          11.7372   40.4161    9.8165 C.3     1  UNL1        0.0110
     10 C          11.5516   41.9223    9.6431 C.3     1  UNL1        0.0220
     11 C          11.7212   42.3026    8.1754 C.3     1  UNL1        0.0936
     12 C          13.3022   40.3881    7.8480 C.3     1  UNL1        0.1011
     13 N          13.0079   41.8097    7.6916 N.pl3   1  UNL1       -0.2778
     14 C          13.9676   42.7010    7.1068 C.ar    1  UNL1        0.2202
     15 C          14.4556   44.5374    5.6924 C.ar    1  UNL1        0.1034
     16 C          15.8135   44.4136    5.9799 C.ar    1  UNL1        0.0414
     17 C          16.2153   43.4030    6.8509 C.ar    1  UNL1        0.1034
     18 N          13.5614   43.6847    6.2569 N.ar    1  UNL1       -0.2121
     19 N          15.2919   42.5692    7.3962 N.ar    1  UNL1       -0.2121
     20 N          15.8185   36.0135    8.5421 N.pl3   1  UNL1       -0.2679
     21 H          16.4007   36.6272    8.0386 H       1  UNL1        0.1565
     22 C          16.2596   34.6519    8.6323 C.ar    1  UNL1        0.2218
     23 C          15.7666   32.3494    8.3928 C.ar    1  UNL1        0.1034
     24 C          17.0602   32.0175    8.7903 C.ar    1  UNL1        0.0414
     25 C          17.9395   33.0512    9.1061 C.ar    1  UNL1        0.1034
     26 N          15.3912   33.6532    8.3211 N.ar    1  UNL1       -0.2120
     27 N          17.5267   34.3427    9.0222 N.ar    1  UNL1       -0.2120
@<TRIPOS>BOND
     1     1     2    1
     2     2     7   ar
     3     3     4   ar
     4     4    20    1
     5     5     6   ar
     6     8     5    1
     7     8     9    1
     8     9    10    1
     9    10    11    1
    10    11    13    1
    11    12    13    1
    12    12     8    1
    13    14    19   ar
    14    15    18   ar
    15    16    17   ar
    16    22    27   ar
    17    23    26   ar
    18    24    25   ar
    19    13    14    1
    20    20    22    1
    21     2     3   ar
    22     4     6   ar
    23     5     7   ar
    24    14    18   ar
    25    15    16   ar
    26    17    19   ar
    27    22    26   ar
    28    23    24   ar
    29    25    27   ar
    30    20    21    1
@<TRIPOS>MOLECULE
MolPort-020-278-653 MCULE-6054173363 PubChem-110255525
 27 30 0 0 0
SMALL
GASTEIGER

@<TRIPOS>ATOM
      1 C          11.3661   35.9396   11.0050 C.3     1  UNL1        0.0522
      2 C          12.4228   36.7124   10.3022 C.ar    1  UNL1        0.0635
      3 C          13.5753   36.0700    9.8553 C.ar    1  UNL1        0.0492
      4 C          14.5532   36.8229    9.1964 C.ar    1  UNL1        0.1368
      5 C          13.2228   38.7683    9.4532 C.ar    1  UNL1        0.1414
      6 N          14.3524   38.1548    9.0114 N.ar    1  UNL1       -0.2158
      7 N          12.2653   38.0448   10.0949 N.ar    1  UNL1       -0.2348
      8 C          13.0443   40.2325    9.2260 C.3     1  UNL1        0.0785
      9 C          11.6112   40.6594    9.5505 C.3     1  UNL1        0.0110
     10 C          11.4370   42.1589    9.3181 C.3     1  UNL1        0.0220
     11 C          11.7797   42.5055    7.8724 C.3     1  UNL1        0.0936
     12 C          13.4024   40.5998    7.7861 C.3     1  UNL1        0.1011
     13 N          13.1189   42.0142    7.5596 N.pl3   1  UNL1       -0.2778
     14 C          14.1356   42.9009    7.0724 C.ar    1  UNL1        0.2202
     15 C          14.7554   44.7883    5.7822 C.ar    1  UNL1        0.1034
     16 C          16.0914   44.6048    6.1331 C.ar    1  UNL1        0.0414
     17 C          16.4145   43.5388    6.9704 C.ar    1  UNL1        0.1034
     18 N          13.8063   43.9390    6.2546 N.ar    1  UNL1       -0.2121
     19 N          15.4378   42.7103    7.4230 N.ar    1  UNL1       -0.2121
     20 N          15.7654   36.2311    8.7080 N.pl3   1  UNL1       -0.2679
     21 H          15.6688   35.5881    7.9688 H       1  UNL1        0.1565
     22 C          17.1016   36.4679    9.1719 C.ar    1  UNL1        0.2218
     23 C          18.5511   37.0108   10.9624 C.ar    1  UNL1        0.1034
     24 C          19.6523   36.9324   10.1122 C.ar    1  UNL1        0.0414
     25 C          19.4317   36.6131    8.7740 C.ar    1  UNL1        0.1034
     26 N          17.3024   36.7785   10.4802 N.ar    1  UNL1       -0.2120
     27 N          18.1680   36.3877    8.3294 N.ar    1  UNL1       -0.2120
@<TRIPOS>BOND
     1     1     2    1
     2     2     7   ar
     3     3     4   ar
     4     4    20    1
     5     5     6   ar
     6     8     5    1
     7     8     9    1
     8     9    10    1
     9    10    11    1
    10    11    13    1
    11    12    13    1
    12    12     8    1
    13    14    19   ar
    14    15    18   ar
    15    16    17   ar
    16    22    27   ar
    17    23    26   ar
    18    24    25   ar
    19    13    14    1
    20    20    22    1
    21     2     3   ar
    22     4     6   ar
    23     5     7   ar
    24    14    18   ar
    25    15    16   ar
    26    17    19   ar
    27    22    26   ar
    28    23    24   ar
    29    25    27   ar
    30    20    21    1
@<TRIPOS>MOLECULE
MolPort-020-278-653 MCULE-6054173363 PubChem-110255525
 27 30 0 0 0
SMALL
GASTEIGER

@<TRIPOS>ATOM
      1 C           9.1803   41.0723   14.2122 C.3     1  UNL1        0.0522
      2 C           9.1694   41.3288   12.7487 C.ar    1  UNL1        0.0635
      3 C           8.0569   41.9185   12.1527 C.ar    1  UNL1        0.0492
      4 C           8.0749   42.1483   10.7729 C.ar    1  UNL1        0.1368
      5 C          10.2512   41.2163   10.6499 C.ar    1  UNL1        0.1414
      6 N           9.1728   41.7913   10.0549 N.ar    1  UNL1       -0.2158
      7 N          10.2439   40.9888   11.9917 N.ar    1  UNL1       -0.2348
      8 C          11.4355   40.8427    9.8222 C.3     1  UNL1        0.0785
      9 C          10.9986   40.3806    8.4305 C.3     1  UNL1        0.0110
     10 C          12.2157   40.0025    7.5887 C.3     1  UNL1        0.0220
     11 C          13.0116   38.9041    8.2872 C.3     1  UNL1        0.0936
     12 C          12.2550   39.7557   10.5176 C.3     1  UNL1        0.1011
     13 N          13.3451   39.3332    9.6427 N.pl3   1  UNL1       -0.2778
     14 C          14.7066   39.3675   10.0924 C.ar    1  UNL1        0.2202
     15 C          16.3617   38.7043   11.6519 C.ar    1  UNL1        0.1034
     16 C          17.3247   39.4354   10.9592 C.ar    1  UNL1        0.0414
     17 C          16.9318   40.1312    9.8177 C.ar    1  UNL1        0.1034
     18 N          15.0774   38.6828   11.2099 N.ar    1  UNL1       -0.2121
     19 N          15.6381   40.0860    9.4062 N.ar    1  UNL1       -0.2121
     20 N           6.9669   42.7514   10.0895 N.pl3   1  UNL1       -0.2679
     21 H           7.1493   43.6042    9.6325 H       1  UNL1        0.1565
     22 C           5.6244   42.2559    9.9950 C.ar    1  UNL1        0.2218
     23 C           3.3879   42.6027    9.3027 C.ar    1  UNL1        0.1034
     24 C           3.0285   41.3476    9.7898 C.ar    1  UNL1        0.0414
     25 C           4.0148   40.5627   10.3836 C.ar    1  UNL1        0.1034
     26 N           4.6721   43.0323    9.4131 N.ar    1  UNL1       -0.2120
     27 N           5.2880   41.0274   10.4755 N.ar    1  UNL1       -0.2120
@<TRIPOS>BOND
     1     1     2    1
     2     2     7   ar
     3     3     4   ar
     4     4    20    1
     5     5     6   ar
     6     8     5    1
     7     8     9    1
     8     9    10    1
     9    10    11    1
    10    11    13    1
    11    12    13    1
    12    12     8    1
    13    14    19   ar
    14    15    18   ar
    15    16    17   ar
    16    22    27   ar
    17    23    26   ar
    18    24    25   ar
    19    13    14    1
    20    20    22    1
    21     2     3   ar
    22     4     6   ar
    23     5     7   ar
    24    14    18   ar
    25    15    16   ar
    26    17    19   ar
    27    22    26   ar
    28    23    24   ar
    29    25    27   ar
    30    20    21    1
@<TRIPOS>MOLECULE
MolPort-020-278-653 MCULE-6054173363 PubChem-110255525
 27 30 0 0 0
SMALL
GASTEIGER

@<TRIPOS>ATOM
      1 C          14.5485   38.3109   11.8746 C.3     1  UNL1        0.0522
      2 C          14.1621   39.1226   10.6916 C.ar    1  UNL1        0.0635
      3 C          15.1166   39.8967   10.0356 C.ar    1  UNL1        0.0492
      4 C          14.7241   40.6507    8.9245 C.ar    1  UNL1        0.1368
      5 C          12.5069   39.8475    9.1676 C.ar    1  UNL1        0.1414
      6 N          13.4277   40.6072    8.5175 N.ar    1  UNL1       -0.2158
      7 N          12.8786   39.1101   10.2494 N.ar    1  UNL1       -0.2348
      8 C          11.0951   39.8289    8.6840 C.3     1  UNL1        0.0785
      9 C          10.7610   38.4807    8.0423 C.3     1  UNL1        0.0110
     10 C           9.3143   38.4684    7.5523 C.3     1  UNL1        0.0220
     11 C           9.0925   39.6008    6.5543 C.3     1  UNL1        0.0936
     12 C          10.8508   40.9701    7.6968 C.3     1  UNL1        0.1011
     13 N           9.4973   40.8671    7.1588 N.pl3   1  UNL1       -0.2778
     14 C           8.5826   41.9681    7.2487 C.ar    1  UNL1        0.2202
     15 C           6.9098   43.3222    6.2591 C.ar    1  UNL1        0.1034
     16 C           6.8251   44.0876    7.4205 C.ar    1  UNL1        0.0414
     17 C           7.6506   43.7554    8.4928 C.ar    1  UNL1        0.1034
     18 N           7.7813   42.2823    6.1931 N.ar    1  UNL1       -0.2121
     19 N           8.5098   42.7083    8.3897 N.ar    1  UNL1       -0.2121
     20 N          15.6505   41.4710    8.1983 N.pl3   1  UNL1       -0.2679
     21 H          16.6048   41.2608    8.3183 H       1  UNL1        0.1565
     22 C          15.3472   42.5617    7.3179 C.ar    1  UNL1        0.2218
     23 C          15.9290   44.6926    6.4680 C.ar    1  UNL1        0.1034
     24 C          14.8069   44.6842    5.6420 C.ar    1  UNL1        0.0414
     25 C          13.9642   43.5754    5.6844 C.ar    1  UNL1        0.1034
     26 N          16.1781   43.6374    7.2867 N.ar    1  UNL1       -0.2120
     27 N          14.2470   42.5395    6.5165 N.ar    1  UNL1       -0.2120
@<TRIPOS>BOND
     1     1     2    1
     2     2     7   ar
     3     3     4   ar
     4     4    20    1
     5     5     6   ar
     6     8     5    1
     7     8     9    1
     8     9    10    1
     9    10    11    1
    10    11    13    1
    11    12    13    1
    12    12     8    1
    13    14    19   ar
    14    15    18   ar
    15    16    17   ar
    16    22    27   ar
    17    23    26   ar
    18    24    25   ar
    19    13    14    1
    20    20    22    1
    21     2     3   ar
    22     4     6   ar
    23     5     7   ar
    24    14    18   ar
    25    15    16   ar
    26    17    19   ar
    27    22    26   ar
    28    23    24   ar
    29    25    27   ar
    30    20    21    1
@<TRIPOS>MOLECULE
MolPort-020-278-653 MCULE-6054173363 PubChem-110255525
 27 30 0 0 0
SMALL
GASTEIGER

@<TRIPOS>ATOM
      1 C           6.9226   43.1708    5.6794 C.3     1  UNL1        0.0522
      2 C           7.6207   42.4719    6.7893 C.ar    1  UNL1        0.0635
      3 C           6.9365   42.1757    7.9662 C.ar    1  UNL1        0.0492
      4 C           7.6192   41.5168    8.9942 C.ar    1  UNL1        0.1368
      5 C           9.5808   41.4810    7.6633 C.ar    1  UNL1        0.1414
      6 N           8.9258   41.1853    8.8171 N.ar    1  UNL1       -0.2158
      7 N           8.9256   42.1215    6.6570 N.ar    1  UNL1       -0.2348
      8 C          11.0148   41.0960    7.5123 C.3     1  UNL1        0.0785
      9 C          11.3160   39.8154    8.2937 C.3     1  UNL1        0.0110
     10 C          12.7843   39.4264    8.1324 C.3     1  UNL1        0.0220
     11 C          13.6805   40.5641    8.6119 C.3     1  UNL1        0.0936
     12 C          11.9271   42.2335    7.9708 C.3     1  UNL1        0.1011
     13 N          13.3186   41.7946    7.9137 N.pl3   1  UNL1       -0.2778
     14 C          14.2949   42.5351    7.1682 C.ar    1  UNL1        0.2202
     15 C          14.8532   43.8725    5.2945 C.ar    1  UNL1        0.1034
     16 C          16.1732   43.9571    5.7328 C.ar    1  UNL1        0.0414
     17 C          16.5204   43.3054    6.9144 C.ar    1  UNL1        0.1034
     18 N          13.9423   43.1676    6.0147 N.ar    1  UNL1       -0.2121
     19 N          15.5819   42.6099    7.6077 N.ar    1  UNL1       -0.2121
     20 N           6.9812   41.1786   10.2339 N.pl3   1  UNL1       -0.2679
     21 H           7.5441   40.7286   10.9046 H       1  UNL1        0.1565
     22 C           5.6182   41.4202   10.6091 C.ar    1  UNL1        0.2218
     23 C           3.6070   42.6158   10.2522 C.ar    1  UNL1        0.1034
     24 C           2.9939   41.9211   11.2930 C.ar    1  UNL1        0.0414
     25 C           3.7410   40.9663   11.9798 C.ar    1  UNL1        0.1034
     26 N           4.9009   42.3546    9.9304 N.ar    1  UNL1       -0.2120
     27 N           5.0324   40.7336   11.6283 N.ar    1  UNL1       -0.2120
@<TRIPOS>BOND
     1     1     2    1
     2     2     7   ar
     3     3     4   ar
     4     4    20    1
     5     5     6   ar
     6     8     5    1
     7     8     9    1
     8     9    10    1
     9    10    11    1
    10    11    13    1
    11    12    13    1
    12    12     8    1
    13    14    19   ar
    14    15    18   ar
    15    16    17   ar
    16    22    27   ar
    17    23    26   ar
    18    24    25   ar
    19    13    14    1
    20    20    22    1
    21     2     3   ar
    22     4     6   ar
    23     5     7   ar
    24    14    18   ar
    25    15    16   ar
    26    17    19   ar
    27    22    26   ar
    28    23    24   ar
    29    25    27   ar
    30    20    21    1
@<TRIPOS>MOLECULE
MolPort-020-278-653 MCULE-6054173363 PubChem-110255525
 27 30 0 0 0
SMALL
GASTEIGER

@<TRIPOS>ATOM
      1 C          15.6026   44.2215    6.4677 C.3     1  UNL1        0.0522
      2 C          14.6332   43.1337    6.7588 C.ar    1  UNL1        0.0635
      3 C          13.3857   43.1274    6.1388 C.ar    1  UNL1        0.0492
      4 C          12.4935   42.0905    6.4318 C.ar    1  UNL1        0.1368
      5 C          14.0876   41.1411    7.9075 C.ar    1  UNL1        0.1414
      6 N          12.8670   41.1219    7.3097 N.ar    1  UNL1       -0.2158
      7 N          14.9630   42.1452    7.6290 N.ar    1  UNL1       -0.2348
      8 C          14.4554   40.0555    8.8634 C.3     1  UNL1        0.0785
      9 C          13.3712   39.8832    9.9292 C.3     1  UNL1        0.0110
     10 C          13.7533   38.7692   10.9019 C.3     1  UNL1        0.0220
     11 C          15.0949   39.0857   11.5557 C.3     1  UNL1        0.0936
     12 C          15.8076   40.3481    9.5135 C.3     1  UNL1        0.1011
     13 N          16.0947   39.3294   10.5195 N.pl3   1  UNL1       -0.2778
     14 C          17.3103   38.5697   10.4730 C.ar    1  UNL1        0.2202
     15 C          19.5760   38.3762    9.8092 C.ar    1  UNL1        0.1034
     16 C          19.6479   37.1075   10.3810 C.ar    1  UNL1        0.0414
     17 C          18.5093   36.5961   11.0004 C.ar    1  UNL1        0.1034
     18 N          18.4162   39.0813    9.8644 N.ar    1  UNL1       -0.2121
     19 N          17.3672   37.3308   11.0357 N.ar    1  UNL1       -0.2121
     20 N          11.1922   42.0170    5.8323 N.pl3   1  UNL1       -0.2679
     21 H          11.1527   42.1587    4.8589 H       1  UNL1        0.1565
     22 C           9.9421   41.7610    6.4871 C.ar    1  UNL1        0.2218
     23 C           8.7684   41.3047    8.4910 C.ar    1  UNL1        0.1034
     24 C           7.5637   41.2645    7.7918 C.ar    1  UNL1        0.0414
     25 C           7.5915   41.4817    6.4158 C.ar    1  UNL1        0.1034
     26 N           9.9297   41.5509    7.8302 N.ar    1  UNL1       -0.2120
     27 N           8.7729   41.7247    5.7908 N.ar    1  UNL1       -0.2120
@<TRIPOS>BOND
     1     1     2    1
     2     2     7   ar
     3     3     4   ar
     4     4    20    1
     5     5     6   ar
     6     8     5    1
     7     8     9    1
     8     9    10    1
     9    10    11    1
    10    11    13    1
    11    12    13    1
    12    12     8    1
    13    14    19   ar
    14    15    18   ar
    15    16    17   ar
    16    22    27   ar
    17    23    26   ar
    18    24    25   ar
    19    13    14    1
    20    20    22    1
    21     2     3   ar
    22     4     6   ar
    23     5     7   ar
    24    14    18   ar
    25    15    16   ar
    26    17    19   ar
    27    22    26   ar
    28    23    24   ar
    29    25    27   ar
    30    20    21    1
@<TRIPOS>MOLECULE
MolPort-020-278-653 MCULE-6054173363 PubChem-110255525
 27 30 0 0 0
SMALL
GASTEIGER

@<TRIPOS>ATOM
      1 C           9.9614   40.0070    4.3532 C.3     1  UNL1        0.0522
      2 C          10.4839   40.6517    5.5857 C.ar    1  UNL1        0.0635
      3 C          11.8575   40.7961    5.7681 C.ar    1  UNL1        0.0492
      4 C          12.3207   41.4072    6.9382 C.ar    1  UNL1        0.1368
      5 C          10.0838   41.6934    7.6696 C.ar    1  UNL1        0.1414
      6 N          11.4215   41.8413    7.8609 N.ar    1  UNL1       -0.2158
      7 N           9.6230   41.1005    6.5346 N.ar    1  UNL1       -0.2348
      8 C           9.1334   42.1870    8.7090 C.3     1  UNL1        0.0785
      9 C           9.8673   42.4734   10.0206 C.3     1  UNL1        0.0110
     10 C           8.8889   42.9804   11.0783 C.3     1  UNL1        0.0220
     11 C           7.7841   41.9522   11.3017 C.3     1  UNL1        0.0936
     12 C           8.0086   41.1761    8.9312 C.3     1  UNL1        0.1011
     13 N           7.1538   41.6312   10.0241 N.pl3   1  UNL1       -0.2778
     14 C           5.7402   41.7871    9.8383 C.ar    1  UNL1        0.2202
     15 C           3.9022   43.1168    9.1566 C.ar    1  UNL1        0.1034
     16 C           3.0210   42.0880    9.4833 C.ar    1  UNL1        0.0414
     17 C           3.5480   40.9035    9.9938 C.ar    1  UNL1        0.1034
     18 N           5.2381   42.9502    9.3383 N.ar    1  UNL1       -0.2121
     19 N           4.8897   40.7736   10.1617 N.ar    1  UNL1       -0.2121
     20 N          13.7201   41.5910    7.1956 N.pl3   1  UNL1       -0.2679
     21 H          14.1757   40.8577    7.6687 H       1  UNL1        0.1565
     22 C          14.5321   42.7195    6.8434 C.ar    1  UNL1        0.2218
     23 C          16.5951   43.8627    7.0398 C.ar    1  UNL1        0.1034
     24 C          16.1323   44.8703    6.1959 C.ar    1  UNL1        0.0414
     25 C          14.8396   44.7633    5.6871 C.ar    1  UNL1        0.1034
     26 N          15.7916   42.8111    7.3469 N.ar    1  UNL1       -0.2120
     27 N          14.0663   43.6964    6.0175 N.ar    1  UNL1       -0.2120
@<TRIPOS>BOND
     1     1     2    1
     2     2     7   ar
     3     3     4   ar
     4     4    20    1
     5     5     6   ar
     6     8     5    1
     7     8     9    1
     8     9    10    1
     9    10    11    1
    10    11    13    1
    11    12    13    1
    12    12     8    1
    13    14    19   ar
    14    15    18   ar
    15    16    17   ar
    16    22    27   ar
    17    23    26   ar
    18    24    25   ar
    19    13    14    1
    20    20    22    1
    21     2     3   ar
    22     4     6   ar
    23     5     7   ar
    24    14    18   ar
    25    15    16   ar
    26    17    19   ar
    27    22    26   ar
    28    23    24   ar
    29    25    27   ar
    30    20    21    1
@<TRIPOS>MOLECULE
MolPort-020-278-653 MCULE-6054173363 PubChem-110255525
 27 30 0 0 0
SMALL
GASTEIGER

@<TRIPOS>ATOM
      1 C          12.1402   35.3508   10.6172 C.3     1  UNL1        0.0522
      2 C          12.6313   36.7507   10.6993 C.ar    1  UNL1        0.0635
      3 C          13.8920   37.0171   11.2290 C.ar    1  UNL1        0.0492
      4 C          14.3282   38.3448   11.2935 C.ar    1  UNL1        0.1368
      5 C          12.2855   39.0590   10.3253 C.ar    1  UNL1        0.1414
      6 N          13.5134   39.3338   10.8394 N.ar    1  UNL1       -0.2158
      7 N          11.8519   37.7708   10.2577 N.ar    1  UNL1       -0.2348
      8 C          11.4258   40.1769    9.8368 C.3     1  UNL1        0.0785
      9 C          12.2724   41.4113    9.5196 C.3     1  UNL1        0.0110
     10 C          11.3862   42.5499    9.0181 C.3     1  UNL1        0.0220
     11 C          10.3281   42.8863   10.0643 C.3     1  UNL1        0.0936
     12 C          10.3473   40.5138   10.8662 C.3     1  UNL1        0.1011
     13 N           9.5886   41.6765   10.4136 N.pl3   1  UNL1       -0.2778
     14 C           8.1609   41.6213   10.2874 C.ar    1  UNL1        0.2202
     15 C           6.2303   41.5725    8.9157 C.ar    1  UNL1        0.1034
     16 C           5.4148   41.5180   10.0444 C.ar    1  UNL1        0.0414
     17 C           6.0216   41.5171   11.2987 C.ar    1  UNL1        0.1034
     18 N           7.5806   41.6229    9.0552 N.ar    1  UNL1       -0.2121
     19 N           7.3753   41.5684   11.3987 N.ar    1  UNL1       -0.2121
     20 N          15.6134   38.6963   11.8255 N.pl3   1  UNL1       -0.2679
     21 H          15.6117   39.1906   12.6769 H       1  UNL1        0.1565
     22 C          16.9004   38.4109   11.2606 C.ar    1  UNL1        0.2218
     23 C          18.6304   36.8445   10.8665 C.ar    1  UNL1        0.1034
     24 C          19.3713   37.8127   10.1917 C.ar    1  UNL1        0.0414
     25 C          18.8316   39.0915   10.0707 C.ar    1  UNL1        0.1034
     26 N          17.4150   37.1588   11.3860 N.ar    1  UNL1       -0.2120
     27 N          17.6129   39.3671   10.6039 N.ar    1  UNL1       -0.2120
@<TRIPOS>BOND
     1     1     2    1
     2     2     7   ar
     3     3     4   ar
     4     4    20    1
     5     5     6   ar
     6     8     5    1
     7     8     9    1
     8     9    10    1
     9    10    11    1
    10    11    13    1
    11    12    13    1
    12    12     8    1
    13    14    19   ar
    14    15    18   ar
    15    16    17   ar
    16    22    27   ar
    17    23    26   ar
    18    24    25   ar
    19    13    14    1
    20    20    22    1
    21     2     3   ar
    22     4     6   ar
    23     5     7   ar
    24    14    18   ar
    25    15    16   ar
    26    17    19   ar
    27    22    26   ar
    28    23    24   ar
    29    25    27   ar
    30    20    21    1
