@<TRIPOS>MOLECULE
Molport-020-292-441 MCULE-1404467033 PubChem-110264909
 32 35 0 0 0
SMALL
GASTEIGER

@<TRIPOS>ATOM
      1 C          12.6180   42.2288    7.0365 C.ar    1  UNL1        0.0517
      2 C          11.6360   42.4201    8.0114 C.ar    1  UNL1        0.0294
      3 C          10.3395   41.9470    7.7922 C.ar    1  UNL1        0.0611
      4 C          10.9761   41.1035    5.6645 C.ar    1  UNL1        0.0602
      5 C          12.2809   41.5627    5.8513 C.ar    1  UNL1        0.0294
      6 C          10.6105   40.3962    4.4099 C.3     1  UNL1        0.0521
      7 N          10.0396   41.3029    6.6296 N.ar    1  UNL1       -0.2538
      8 C           9.2949   42.1567    8.8376 C.3     1  UNL1        0.0602
      9 C           9.9254   42.2010   10.2304 C.3     1  UNL1        0.0094
     10 C           8.8503   42.4201   11.2922 C.3     1  UNL1        0.0220
     11 C           7.8025   41.3135   11.2134 C.3     1  UNL1        0.0937
     12 C           8.2362   41.0569    8.7670 C.3     1  UNL1        0.0996
     13 C           5.8907   41.4901    9.5514 C.2     1  UNL1        0.2491
     14 N           7.2750   41.2326    9.8526 N.am    1  UNL1       -0.2757
     15 O           5.5799   41.8872    8.3943 O.2     1  UNL1       -0.2699
     16 C           4.8120   41.2965   10.5492 C.ar    1  UNL1        0.0566
     17 C           3.8640   42.2985   10.8030 C.ar    1  UNL1        0.0414
     18 C           2.8617   42.1145   11.7687 C.ar    1  UNL1        0.1389
     19 C           2.8171   40.9190   12.4914 C.ar    1  UNL1        0.0369
     20 C           3.7628   39.9183   12.2560 C.ar    1  UNL1        0.0033
     21 C           4.7567   40.1081   11.2925 C.ar    1  UNL1        0.0047
     22 C           0.9075   42.9546   13.0306 C.3     1  UNL1        0.2525
     23 O           1.9046   43.0992   12.0282 O.3     1  UNL1       -0.4714
     24 N          13.9411   42.7235    7.2854 N.pl3   1  UNL1       -0.2981
     25 H          14.1494   43.6133    6.9190 H       1  UNL1        0.1536
     26 C          16.6045   43.8586    7.2321 C.3     1  UNL1        0.0340
     27 C          16.2938   42.6128    7.9887 C.ar    1  UNL1        0.0099
     28 C          14.9978   42.0706    8.0078 C.ar    1  UNL1        0.1281
     29 C          15.7450   40.2925    9.4059 C.ar    1  UNL1        0.1003
     30 C          17.0426   40.8044    9.4078 C.ar    1  UNL1        0.0204
     31 C          17.3138   41.9713    8.6938 C.ar    1  UNL1        0.0001
     32 N          14.7623   40.9290    8.7144 N.ar    1  UNL1       -0.2294
@<TRIPOS>BOND
     1    26    27    1
     2    28    32   ar
     3    28    24    1
     4    29    30   ar
     5    31    27   ar
     6     2     3   ar
     7     4     7   ar
     8     5     1   ar
     9     6     4    1
    10     8     3    1
    11     8     9    1
    12     9    10    1
    13    10    11    1
    14    11    14    1
    15    12    14    1
    16    12     8    1
    17    13    16    1
    18    17    18   ar
    19    18    23    1
    20    19    20   ar
    21    21    16   ar
    22    22    23    1
    23    24     1    1
    24    14    13   am
    25    27    28   ar
    26    29    32   ar
    27    30    31   ar
    28     1     2   ar
    29     3     7   ar
    30     4     5   ar
    31    13    15    2
    32    16    17   ar
    33    18    19   ar
    34    20    21   ar
    35    24    25    1
@<TRIPOS>MOLECULE
Molport-020-292-441 MCULE-1404467033 PubChem-110264909
 32 35 0 0 0
SMALL
GASTEIGER

@<TRIPOS>ATOM
      1 C          13.7394   41.1396    8.1413 C.ar    1  UNL1        0.0517
      2 C          12.3543   40.9941    8.0329 C.ar    1  UNL1        0.0294
      3 C          11.6536   40.2795    9.0081 C.ar    1  UNL1        0.0611
      4 C          13.6713   39.8547   10.1879 C.ar    1  UNL1        0.0602
      5 C          14.4019   40.5624    9.2320 C.ar    1  UNL1        0.0294
      6 C          14.3669   39.2393   11.3478 C.3     1  UNL1        0.0521
      7 N          12.3240   39.7281   10.0584 N.ar    1  UNL1       -0.2538
      8 C          10.1739   40.1264    8.8849 C.3     1  UNL1        0.0602
      9 C           9.7994   39.5899    7.5024 C.3     1  UNL1        0.0094
     10 C           8.2850   39.4325    7.3873 C.3     1  UNL1        0.0220
     11 C           7.5978   40.7700    7.6471 C.3     1  UNL1        0.0937
     12 C           9.4725   41.4586    9.1470 C.3     1  UNL1        0.0996
     13 C           7.1221   41.5124   10.0285 C.2     1  UNL1        0.2491
     14 N           8.0356   41.3052    8.9350 N.am    1  UNL1       -0.2757
     15 O           7.5674   41.4949   11.2094 O.2     1  UNL1       -0.2699
     16 C           5.6753   41.7562    9.8187 C.ar    1  UNL1        0.0566
     17 C           5.2039   42.9898    9.3464 C.ar    1  UNL1        0.0414
     18 C           3.8293   43.2186    9.1756 C.ar    1  UNL1        0.1389
     19 C           2.9210   42.2040    9.4905 C.ar    1  UNL1        0.0369
     20 C           3.3775   40.9751    9.9728 C.ar    1  UNL1        0.0033
     21 C           4.7471   40.7544   10.1392 C.ar    1  UNL1        0.0047
     22 C           3.9048   45.1010    7.5731 C.3     1  UNL1        0.2525
     23 O           3.3432   44.4388    8.6983 O.3     1  UNL1       -0.4714
     24 N          14.4356   41.8778    7.1274 N.pl3   1  UNL1       -0.2981
     25 H          14.0293   41.8755    6.2307 H       1  UNL1        0.1536
     26 C          14.9415   44.1219    5.3688 C.3     1  UNL1        0.0340
     27 C          15.9132   43.7108    6.4214 C.ar    1  UNL1        0.0099
     28 C          15.6576   42.6201    7.2693 C.ar    1  UNL1        0.1281
     29 C          17.7405   42.9687    8.3717 C.ar    1  UNL1        0.1003
     30 C          18.0250   44.0566    7.5463 C.ar    1  UNL1        0.0204
     31 C          17.1033   44.4260    6.5670 C.ar    1  UNL1        0.0001
     32 N          16.5769   42.2821    8.2175 N.ar    1  UNL1       -0.2294
@<TRIPOS>BOND
     1    26    27    1
     2    28    32   ar
     3    28    24    1
     4    29    30   ar
     5    31    27   ar
     6     2     3   ar
     7     4     7   ar
     8     5     1   ar
     9     6     4    1
    10     8     3    1
    11     8     9    1
    12     9    10    1
    13    10    11    1
    14    11    14    1
    15    12    14    1
    16    12     8    1
    17    13    16    1
    18    17    18   ar
    19    18    23    1
    20    19    20   ar
    21    21    16   ar
    22    22    23    1
    23    24     1    1
    24    14    13   am
    25    27    28   ar
    26    29    32   ar
    27    30    31   ar
    28     1     2   ar
    29     3     7   ar
    30     4     5   ar
    31    13    15    2
    32    16    17   ar
    33    18    19   ar
    34    20    21   ar
    35    24    25    1
@<TRIPOS>MOLECULE
Molport-020-292-441 MCULE-1404467033 PubChem-110264909
 32 35 0 0 0
SMALL
GASTEIGER

@<TRIPOS>ATOM
      1 C          14.5062   40.8063    8.9548 C.ar    1  UNL1        0.0517
      2 C          13.1621   40.9721    8.6122 C.ar    1  UNL1        0.0294
      3 C          12.1695   40.3602    9.3823 C.ar    1  UNL1        0.0611
      4 C          13.8171   39.4274   10.8172 C.ar    1  UNL1        0.0602
      5 C          14.8337   40.0248   10.0702 C.ar    1  UNL1        0.0294
      6 C          14.1564   38.5968   12.0016 C.3     1  UNL1        0.0521
      7 N          12.5170   39.6050   10.4618 N.ar    1  UNL1       -0.2538
      8 C          10.7354   40.5402    9.0092 C.3     1  UNL1        0.0602
      9 C          10.4688   39.9909    7.6069 C.3     1  UNL1        0.0094
     10 C           8.9992   40.1754    7.2359 C.3     1  UNL1        0.0220
     11 C           8.6202   41.6514    7.3141 C.3     1  UNL1        0.0937
     12 C          10.3412   42.0146    9.0874 C.3     1  UNL1        0.0996
     13 C           7.9626   42.6780    9.5418 C.2     1  UNL1        0.2491
     14 N           8.9622   42.1771    8.6345 N.am    1  UNL1       -0.2757
     15 O           8.1964   42.6570   10.7819 O.2     1  UNL1       -0.2699
     16 C           6.6690   43.2282    9.0723 C.ar    1  UNL1        0.0566
     17 C           5.4483   42.6621    9.4681 C.ar    1  UNL1        0.0414
     18 C           4.2294   43.1754    8.9969 C.ar    1  UNL1        0.1389
     19 C           4.2371   44.2591    8.1144 C.ar    1  UNL1        0.0369
     20 C           5.4467   44.8241    7.7037 C.ar    1  UNL1        0.0033
     21 C           6.6558   44.3087    8.1777 C.ar    1  UNL1        0.0047
     22 C           2.7769   41.2275    9.4582 C.3     1  UNL1        0.2525
     23 O           3.0040   42.6286    9.3877 O.3     1  UNL1       -0.4714
     24 N          15.5061   41.4448    8.1487 N.pl3   1  UNL1       -0.2981
     25 H          16.4156   41.0724    8.2072 H       1  UNL1        0.1536
     26 C          17.4667   43.5756    8.1653 C.3     1  UNL1        0.0340
     27 C          16.2791   43.6045    7.2654 C.ar    1  UNL1        0.0099
     28 C          15.3338   42.5650    7.2655 C.ar    1  UNL1        0.1281
     29 C          14.0783   43.6852    5.5792 C.ar    1  UNL1        0.1003
     30 C          14.9981   44.7336    5.5540 C.ar    1  UNL1        0.0204
     31 C          16.1032   44.6887    6.4037 C.ar    1  UNL1        0.0001
     32 N          14.2637   42.6360    6.4241 N.ar    1  UNL1       -0.2294
@<TRIPOS>BOND
     1    26    27    1
     2    28    32   ar
     3    28    24    1
     4    29    30   ar
     5    31    27   ar
     6     2     3   ar
     7     4     7   ar
     8     5     1   ar
     9     6     4    1
    10     8     3    1
    11     8     9    1
    12     9    10    1
    13    10    11    1
    14    11    14    1
    15    12    14    1
    16    12     8    1
    17    13    16    1
    18    17    18   ar
    19    18    23    1
    20    19    20   ar
    21    21    16   ar
    22    22    23    1
    23    24     1    1
    24    14    13   am
    25    27    28   ar
    26    29    32   ar
    27    30    31   ar
    28     1     2   ar
    29     3     7   ar
    30     4     5   ar
    31    13    15    2
    32    16    17   ar
    33    18    19   ar
    34    20    21   ar
    35    24    25    1
@<TRIPOS>MOLECULE
Molport-020-292-441 MCULE-1404467033 PubChem-110264909
 32 35 0 0 0
SMALL
GASTEIGER

@<TRIPOS>ATOM
      1 C          11.7016   39.7814    8.4823 C.ar    1  UNL1        0.0517
      2 C          12.2521   38.5596    8.0878 C.ar    1  UNL1        0.0294
      3 C          12.9765   37.7962    9.0070 C.ar    1  UNL1        0.0611
      4 C          12.6180   39.4320   10.6920 C.ar    1  UNL1        0.0602
      5 C          11.8885   40.2193    9.7996 C.ar    1  UNL1        0.0294
      6 C          12.8208   39.8897   12.0910 C.3     1  UNL1        0.0521
      7 N          13.1430   38.2470   10.2820 N.ar    1  UNL1       -0.2538
      8 C          13.5635   36.4925    8.5778 C.3     1  UNL1        0.0602
      9 C          13.5482   35.4874    9.7305 C.3     1  UNL1        0.0094
     10 C          14.1461   34.1563    9.2811 C.3     1  UNL1        0.0220
     11 C          15.5692   34.3662    8.7720 C.3     1  UNL1        0.0937
     12 C          14.9882   36.6891    8.0615 C.3     1  UNL1        0.0996
     13 C          15.9651   35.1059    6.3752 C.2     1  UNL1        0.2491
     14 N          15.5722   35.3919    7.7306 N.am    1  UNL1       -0.2757
     15 O          15.5096   35.8231    5.4418 O.2     1  UNL1       -0.2699
     16 C          16.8952   34.0034    6.0344 C.ar    1  UNL1        0.0566
     17 C          17.0557   33.5666    4.7113 C.ar    1  UNL1        0.0414
     18 C          17.9203   32.5043    4.4029 C.ar    1  UNL1        0.1389
     19 C          18.6216   31.8701    5.4321 C.ar    1  UNL1        0.0369
     20 C          18.4613   32.2883    6.7552 C.ar    1  UNL1        0.0033
     21 C          17.5999   33.3469    7.0544 C.ar    1  UNL1        0.0047
     22 C          17.0336   31.5427    2.3039 C.3     1  UNL1        0.2525
     23 O          18.0981   32.0620    3.0892 O.3     1  UNL1       -0.4714
     24 N          10.9621   40.5463    7.5202 N.pl3   1  UNL1       -0.2981
     25 H          11.4532   40.8216    6.7126 H       1  UNL1        0.1536
     26 C           8.8948   38.7675    6.5473 C.3     1  UNL1        0.0340
     27 C           8.5763   40.1017    7.1299 C.ar    1  UNL1        0.0099
     28 C           9.5875   40.9570    7.5990 C.ar    1  UNL1        0.1281
     29 C           7.9537   42.5797    8.2094 C.ar    1  UNL1        0.1003
     30 C           6.9257   41.7547    7.7529 C.ar    1  UNL1        0.0204
     31 C           7.2436   40.5096    7.2108 C.ar    1  UNL1        0.0001
     32 N           9.2469   42.1681    8.1238 N.ar    1  UNL1       -0.2294
@<TRIPOS>BOND
     1    26    27    1
     2    28    32   ar
     3    28    24    1
     4    29    30   ar
     5    31    27   ar
     6     2     3   ar
     7     4     7   ar
     8     5     1   ar
     9     6     4    1
    10     8     3    1
    11     8     9    1
    12     9    10    1
    13    10    11    1
    14    11    14    1
    15    12    14    1
    16    12     8    1
    17    13    16    1
    18    17    18   ar
    19    18    23    1
    20    19    20   ar
    21    21    16   ar
    22    22    23    1
    23    24     1    1
    24    14    13   am
    25    27    28   ar
    26    29    32   ar
    27    30    31   ar
    28     1     2   ar
    29     3     7   ar
    30     4     5   ar
    31    13    15    2
    32    16    17   ar
    33    18    19   ar
    34    20    21   ar
    35    24    25    1
@<TRIPOS>MOLECULE
Molport-020-292-441 MCULE-1404467033 PubChem-110264909
 32 35 0 0 0
SMALL
GASTEIGER

@<TRIPOS>ATOM
      1 C           6.0181   41.3384    7.8432 C.ar    1  UNL1        0.0517
      2 C           7.1825   40.6212    8.1276 C.ar    1  UNL1        0.0294
      3 C           8.4106   41.0676    7.6324 C.ar    1  UNL1        0.0611
      4 C           7.3484   42.9154    6.5830 C.ar    1  UNL1        0.0602
      5 C           6.1056   42.4978    7.0620 C.ar    1  UNL1        0.0294
      6 C           7.4495   44.1440    5.7535 C.3     1  UNL1        0.0521
      7 N           8.4661   42.1986    6.8747 N.ar    1  UNL1       -0.2538
      8 C           9.6505   40.2950    7.9388 C.3     1  UNL1        0.0602
      9 C           9.3352   38.8065    8.0942 C.3     1  UNL1        0.0094
     10 C          10.6095   38.0242    8.4030 C.3     1  UNL1        0.0220
     11 C          11.2647   38.5681    9.6692 C.3     1  UNL1        0.0937
     12 C          10.3193   40.8326    9.2033 C.3     1  UNL1        0.0996
     13 C          12.7957   40.5899    9.5397 C.2     1  UNL1        0.2491
     14 N          11.4789   40.0075    9.5321 N.am    1  UNL1       -0.2757
     15 O          12.9807   41.6919    8.9527 O.2     1  UNL1       -0.2699
     16 C          13.9439   39.9469   10.2214 C.ar    1  UNL1        0.0566
     17 C          15.2123   39.8968    9.6248 C.ar    1  UNL1        0.0414
     18 C          16.2869   39.2626   10.2683 C.ar    1  UNL1        0.1389
     19 C          16.0837   38.6663   11.5159 C.ar    1  UNL1        0.0369
     20 C          14.8223   38.6994   12.1151 C.ar    1  UNL1        0.0033
     21 C          13.7579   39.3333   11.4691 C.ar    1  UNL1        0.0047
     22 C          18.7309   38.9257   10.4433 C.3     1  UNL1        0.2525
     23 O          17.5589   39.2108    9.6917 O.3     1  UNL1       -0.4714
     24 N           4.7699   40.8597    8.3633 N.pl3   1  UNL1       -0.2981
     25 H           4.2277   40.3076    7.7546 H       1  UNL1        0.1536
     26 C           3.5314   43.4119    8.9436 C.3     1  UNL1        0.0340
     27 C           3.6164   42.3274    9.9623 C.ar    1  UNL1        0.0099
     28 C           4.2196   41.0927    9.6700 C.ar    1  UNL1        0.1281
     29 C           3.7600   40.3272   11.8785 C.ar    1  UNL1        0.1003
     30 C           3.1542   41.5415   12.2014 C.ar    1  UNL1        0.0204
     31 C           3.0844   42.5444   11.2347 C.ar    1  UNL1        0.0001
     32 N           4.2734   40.1311   10.6347 N.ar    1  UNL1       -0.2294
@<TRIPOS>BOND
     1    26    27    1
     2    28    32   ar
     3    28    24    1
     4    29    30   ar
     5    31    27   ar
     6     2     3   ar
     7     4     7   ar
     8     5     1   ar
     9     6     4    1
    10     8     3    1
    11     8     9    1
    12     9    10    1
    13    10    11    1
    14    11    14    1
    15    12    14    1
    16    12     8    1
    17    13    16    1
    18    17    18   ar
    19    18    23    1
    20    19    20   ar
    21    21    16   ar
    22    22    23    1
    23    24     1    1
    24    14    13   am
    25    27    28   ar
    26    29    32   ar
    27    30    31   ar
    28     1     2   ar
    29     3     7   ar
    30     4     5   ar
    31    13    15    2
    32    16    17   ar
    33    18    19   ar
    34    20    21   ar
    35    24    25    1
@<TRIPOS>MOLECULE
Molport-020-292-441 MCULE-1404467033 PubChem-110264909
 32 35 0 0 0
SMALL
GASTEIGER

@<TRIPOS>ATOM
      1 C           6.1752   41.3690    8.0145 C.ar    1  UNL1        0.0517
      2 C           7.4039   40.8399    8.4165 C.ar    1  UNL1        0.0294
      3 C           8.5906   41.3981    7.9341 C.ar    1  UNL1        0.0611
      4 C           7.3616   42.9881    6.6671 C.ar    1  UNL1        0.0602
      5 C           6.1575   42.4551    7.1301 C.ar    1  UNL1        0.0294
      6 C           7.3512   44.1400    5.7286 C.3     1  UNL1        0.0521
      7 N           8.5436   42.4541    7.0743 N.ar    1  UNL1       -0.2538
      8 C           9.8999   40.8264    8.3665 C.3     1  UNL1        0.0602
      9 C           9.7860   40.2096    9.7615 C.3     1  UNL1        0.0094
     10 C          11.1282   39.6237   10.1933 C.3     1  UNL1        0.0220
     11 C          12.2037   40.7061   10.1722 C.3     1  UNL1        0.0937
     12 C          10.9876   41.8996    8.3459 C.3     1  UNL1        0.0996
     13 C          13.3943   41.2721    8.0018 C.2     1  UNL1        0.2491
     14 N          12.2368   41.3401    8.8555 N.am    1  UNL1       -0.2757
     15 O          13.2410   41.3792    6.7535 O.2     1  UNL1       -0.2699
     16 C          14.7648   41.0901    8.5358 C.ar    1  UNL1        0.0566
     17 C          15.0784   40.0263    9.3943 C.ar    1  UNL1        0.0414
     18 C          16.3739   39.8780    9.9149 C.ar    1  UNL1        0.1389
     19 C          17.3590   40.8105    9.5781 C.ar    1  UNL1        0.0369
     20 C          17.0559   41.8809    8.7334 C.ar    1  UNL1        0.0033
     21 C          15.7648   42.0214    8.2183 C.ar    1  UNL1        0.0047
     22 C          15.7827   38.2610   11.6905 C.3     1  UNL1        0.2525
     23 O          16.7053   38.8193   10.7648 O.3     1  UNL1       -0.4714
     24 N           4.9713   40.7784    8.5239 N.pl3   1  UNL1       -0.2981
     25 H           4.5392   40.1061    7.9491 H       1  UNL1        0.1536
     26 C           3.6196   43.3129    8.8897 C.3     1  UNL1        0.0340
     27 C           3.6644   42.2814    9.9644 C.ar    1  UNL1        0.0099
     28 C           4.3232   41.0548    9.7762 C.ar    1  UNL1        0.1281
     29 C           3.7313   40.3801   11.9828 C.ar    1  UNL1        0.1003
     30 C           3.0685   41.5877   12.2024 C.ar    1  UNL1        0.0204
     31 C           3.0375   42.5407   11.1846 C.ar    1  UNL1        0.0001
     32 N           4.3371   40.1424   10.7888 N.ar    1  UNL1       -0.2294
@<TRIPOS>BOND
     1    26    27    1
     2    28    32   ar
     3    28    24    1
     4    29    30   ar
     5    31    27   ar
     6     2     3   ar
     7     4     7   ar
     8     5     1   ar
     9     6     4    1
    10     8     3    1
    11     8     9    1
    12     9    10    1
    13    10    11    1
    14    11    14    1
    15    12    14    1
    16    12     8    1
    17    13    16    1
    18    17    18   ar
    19    18    23    1
    20    19    20   ar
    21    21    16   ar
    22    22    23    1
    23    24     1    1
    24    14    13   am
    25    27    28   ar
    26    29    32   ar
    27    30    31   ar
    28     1     2   ar
    29     3     7   ar
    30     4     5   ar
    31    13    15    2
    32    16    17   ar
    33    18    19   ar
    34    20    21   ar
    35    24    25    1
@<TRIPOS>MOLECULE
Molport-020-292-441 MCULE-1404467033 PubChem-110264909
 32 35 0 0 0
SMALL
GASTEIGER

@<TRIPOS>ATOM
      1 C           7.3455   41.3644    8.8645 C.ar    1  UNL1        0.0517
      2 C           8.7371   41.2659    8.7948 C.ar    1  UNL1        0.0294
      3 C           9.3321   40.5920    7.7250 C.ar    1  UNL1        0.0611
      4 C           7.1965   40.1153    6.8000 C.ar    1  UNL1        0.0602
      5 C           6.5697   40.7816    7.8543 C.ar    1  UNL1        0.0294
      6 C           6.3805   39.4943    5.7247 C.3     1  UNL1        0.0521
      7 N           8.5528   40.0342    6.7565 N.ar    1  UNL1       -0.2538
      8 C          10.8197   40.4892    7.6580 C.3     1  UNL1        0.0602
      9 C          11.3193   39.3187    8.5063 C.3     1  UNL1        0.0094
     10 C          12.8408   39.2188    8.4282 C.3     1  UNL1        0.0220
     11 C          13.4765   40.5262    8.8919 C.3     1  UNL1        0.0937
     12 C          11.4694   41.7943    8.1162 C.3     1  UNL1        0.0996
     13 C          13.7363   42.4594    7.2660 C.2     1  UNL1        0.2491
     14 N          12.9218   41.6409    8.1261 N.am    1  UNL1       -0.2757
     15 O          13.1944   43.0512    6.2917 O.2     1  UNL1       -0.2699
     16 C          15.1903   42.6419    7.4880 C.ar    1  UNL1        0.0566
     17 C          15.9478   41.6886    8.1841 C.ar    1  UNL1        0.0414
     18 C          17.3195   41.8837    8.4111 C.ar    1  UNL1        0.1389
     19 C          17.9328   43.0493    7.9435 C.ar    1  UNL1        0.0369
     20 C          17.1867   44.0116    7.2591 C.ar    1  UNL1        0.0033
     21 C          15.8222   43.8100    7.0361 C.ar    1  UNL1        0.0047
     22 C          17.5272   39.9998   10.0000 C.3     1  UNL1        0.2525
     23 O          18.0905   40.9402    9.0955 O.3     1  UNL1       -0.4714
     24 N           6.7590   42.0614    9.9726 N.pl3   1  UNL1       -0.2981
     25 H           7.3445   42.6940   10.4482 H       1  UNL1        0.1536
     26 C           4.6738   43.7074    8.8206 C.3     1  UNL1        0.0340
     27 C           4.3962   42.7367    9.9169 C.ar    1  UNL1        0.0099
     28 C           5.4157   41.9429   10.4687 C.ar    1  UNL1        0.1281
     29 C           3.8500   40.9384   11.9568 C.ar    1  UNL1        0.1003
     30 C           2.8147   41.7115   11.4311 C.ar    1  UNL1        0.0204
     31 C           3.0942   42.6144   10.4055 C.ar    1  UNL1        0.0001
     32 N           5.1130   41.0690   11.4702 N.ar    1  UNL1       -0.2294
@<TRIPOS>BOND
     1    26    27    1
     2    28    32   ar
     3    28    24    1
     4    29    30   ar
     5    31    27   ar
     6     2     3   ar
     7     4     7   ar
     8     5     1   ar
     9     6     4    1
    10     8     3    1
    11     8     9    1
    12     9    10    1
    13    10    11    1
    14    11    14    1
    15    12    14    1
    16    12     8    1
    17    13    16    1
    18    17    18   ar
    19    18    23    1
    20    19    20   ar
    21    21    16   ar
    22    22    23    1
    23    24     1    1
    24    14    13   am
    25    27    28   ar
    26    29    32   ar
    27    30    31   ar
    28     1     2   ar
    29     3     7   ar
    30     4     5   ar
    31    13    15    2
    32    16    17   ar
    33    18    19   ar
    34    20    21   ar
    35    24    25    1
@<TRIPOS>MOLECULE
Molport-020-292-441 MCULE-1404467033 PubChem-110264909
 32 35 0 0 0
SMALL
GASTEIGER

@<TRIPOS>ATOM
      1 C          14.4353   41.4286    8.0104 C.ar    1  UNL1        0.0517
      2 C          13.1514   41.6830    8.4983 C.ar    1  UNL1        0.0294
      3 C          12.4370   42.7881    8.0282 C.ar    1  UNL1        0.0611
      4 C          14.2434   43.3872    6.6062 C.ar    1  UNL1        0.0602
      5 C          14.9843   42.2922    7.0538 C.ar    1  UNL1        0.0294
      6 C          14.8188   44.3080    5.5919 C.3     1  UNL1        0.0521
      7 N          12.9960   43.6118    7.0978 N.ar    1  UNL1       -0.2538
      8 C          11.0663   43.0548    8.5555 C.3     1  UNL1        0.0602
      9 C          11.0803   43.1311   10.0830 C.3     1  UNL1        0.0094
     10 C           9.6754   43.4084   10.6128 C.3     1  UNL1        0.0220
     11 C           8.7129   42.3230   10.1393 C.3     1  UNL1        0.0937
     12 C          10.0908   41.9768    8.0850 C.3     1  UNL1        0.0996
     13 C           7.6444   42.4868    7.8415 C.2     1  UNL1        0.2491
     14 N           8.7789   42.2090    8.6835 N.am    1  UNL1       -0.2757
     15 O           7.8419   42.8524    6.6496 O.2     1  UNL1       -0.2699
     16 C           6.2483   42.3497    8.3200 C.ar    1  UNL1        0.0566
     17 C           5.3616   43.4363    8.3052 C.ar    1  UNL1        0.0414
     18 C           4.0490   43.3020    8.7847 C.ar    1  UNL1        0.1389
     19 C           3.6269   42.0697    9.2915 C.ar    1  UNL1        0.0369
     20 C           4.5043   40.9833    9.3224 C.ar    1  UNL1        0.0033
     21 C           5.8088   41.1242    8.8424 C.ar    1  UNL1        0.0047
     22 C           3.1381   45.3492    7.7378 C.3     1  UNL1        0.2525
     23 O           3.1502   44.3721    8.7696 O.3     1  UNL1       -0.4714
     24 N          15.1479   40.2878    8.5086 N.pl3   1  UNL1       -0.2981
     25 H          15.8654   39.9371    7.9329 H       1  UNL1        0.1536
     26 C          17.4047   39.7812   10.2507 C.3     1  UNL1        0.0340
     27 C          16.0235   39.3467   10.6038 C.ar    1  UNL1        0.0099
     28 C          14.9356   39.5977    9.7509 C.ar    1  UNL1        0.1281
     29 C          13.4636   38.5262   11.2872 C.ar    1  UNL1        0.1003
     30 C          14.5218   38.2612   12.1566 C.ar    1  UNL1        0.0204
     31 C          15.8072   38.6757   11.8087 C.ar    1  UNL1        0.0001
     32 N          13.6905   39.1810   10.1172 N.ar    1  UNL1       -0.2294
@<TRIPOS>BOND
     1    26    27    1
     2    28    32   ar
     3    28    24    1
     4    29    30   ar
     5    31    27   ar
     6     2     3   ar
     7     4     7   ar
     8     5     1   ar
     9     6     4    1
    10     8     3    1
    11     8     9    1
    12     9    10    1
    13    10    11    1
    14    11    14    1
    15    12    14    1
    16    12     8    1
    17    13    16    1
    18    17    18   ar
    19    18    23    1
    20    19    20   ar
    21    21    16   ar
    22    22    23    1
    23    24     1    1
    24    14    13   am
    25    27    28   ar
    26    29    32   ar
    27    30    31   ar
    28     1     2   ar
    29     3     7   ar
    30     4     5   ar
    31    13    15    2
    32    16    17   ar
    33    18    19   ar
    34    20    21   ar
    35    24    25    1
@<TRIPOS>MOLECULE
Molport-020-292-441 MCULE-1404467033 PubChem-110264909
 32 35 0 0 0
SMALL
GASTEIGER

@<TRIPOS>ATOM
      1 C          13.6453   39.9202    9.5200 C.ar    1  UNL1        0.0517
      2 C          12.3721   40.4792    9.6535 C.ar    1  UNL1        0.0294
      3 C          12.0516   41.6484    8.9587 C.ar    1  UNL1        0.0611
      4 C          14.2278   41.7145    8.0081 C.ar    1  UNL1        0.0602
      5 C          14.5809   40.5473    8.6873 C.ar    1  UNL1        0.0294
      6 C          15.2147   42.3858    7.1232 C.3     1  UNL1        0.0521
      7 N          12.9817   42.2374    8.1559 N.ar    1  UNL1       -0.2538
      8 C          10.6897   42.2411    9.1076 C.3     1  UNL1        0.0602
      9 C          10.7177   43.4228   10.0782 C.3     1  UNL1        0.0094
     10 C           9.3219   44.0250   10.2206 C.3     1  UNL1        0.0220
     11 C           8.3385   42.9611   10.7000 C.3     1  UNL1        0.0937
     12 C           9.6934   41.1846    9.5834 C.3     1  UNL1        0.0996
     13 C           7.2534   41.3882    9.0275 C.2     1  UNL1        0.2491
     14 N           8.3904   41.8058    9.8060 N.am    1  UNL1       -0.2757
     15 O           7.4466   40.7484    7.9568 O.2     1  UNL1       -0.2699
     16 C           5.8594   41.6738    9.4424 C.ar    1  UNL1        0.0566
     17 C           5.1535   42.7693    8.9240 C.ar    1  UNL1        0.0414
     18 C           3.8423   43.0455    9.3432 C.ar    1  UNL1        0.1389
     19 C           3.2393   42.2207   10.2969 C.ar    1  UNL1        0.0369
     20 C           3.9363   41.1335   10.8292 C.ar    1  UNL1        0.0033
     21 C           5.2405   40.8643   10.4064 C.ar    1  UNL1        0.0047
     22 C           3.5917   44.9181    7.7470 C.3     1  UNL1        0.2525
     23 O           3.1219   44.1279    8.8308 O.3     1  UNL1       -0.4714
     24 N          13.9497   38.7196   10.2436 N.pl3   1  UNL1       -0.2981
     25 H          13.8354   38.7593   11.2206 H       1  UNL1        0.1536
     26 C          12.2642   36.3791   10.5000 C.3     1  UNL1        0.0340
     27 C          13.5922   36.3239    9.8260 C.ar    1  UNL1        0.0099
     28 C          14.4021   37.4658    9.7071 C.ar    1  UNL1        0.1281
     29 C          16.0597   36.1910    8.5661 C.ar    1  UNL1        0.1003
     30 C          15.2803   35.0385    8.6671 C.ar    1  UNL1        0.0204
     31 C          14.0403   35.1101    9.3015 C.ar    1  UNL1        0.0001
     32 N          15.6092   37.3657    9.0819 N.ar    1  UNL1       -0.2294
@<TRIPOS>BOND
     1    26    27    1
     2    28    32   ar
     3    28    24    1
     4    29    30   ar
     5    31    27   ar
     6     2     3   ar
     7     4     7   ar
     8     5     1   ar
     9     6     4    1
    10     8     3    1
    11     8     9    1
    12     9    10    1
    13    10    11    1
    14    11    14    1
    15    12    14    1
    16    12     8    1
    17    13    16    1
    18    17    18   ar
    19    18    23    1
    20    19    20   ar
    21    21    16   ar
    22    22    23    1
    23    24     1    1
    24    14    13   am
    25    27    28   ar
    26    29    32   ar
    27    30    31   ar
    28     1     2   ar
    29     3     7   ar
    30     4     5   ar
    31    13    15    2
    32    16    17   ar
    33    18    19   ar
    34    20    21   ar
    35    24    25    1
@<TRIPOS>MOLECULE
Molport-020-292-441 MCULE-1404467033 PubChem-110264909
 32 35 0 0 0
SMALL
GASTEIGER

@<TRIPOS>ATOM
      1 C           8.3864   41.7791   10.3629 C.ar    1  UNL1        0.0517
      2 C           9.6854   41.5078    9.9267 C.ar    1  UNL1        0.0294
      3 C          10.6744   41.1766   10.8566 C.ar    1  UNL1        0.0611
      4 C           9.1117   41.3800   12.6343 C.ar    1  UNL1        0.0602
      5 C           8.0999   41.7136   11.7325 C.ar    1  UNL1        0.0294
      6 C           8.8158   41.3086   14.0887 C.3     1  UNL1        0.0521
      7 N          10.3675   41.1207   12.1830 N.ar    1  UNL1       -0.2538
      8 C          12.0607   40.8897   10.3834 C.3     1  UNL1        0.0602
      9 C          12.2301   41.3075    8.9218 C.3     1  UNL1        0.0094
     10 C          13.6518   41.0145    8.4482 C.3     1  UNL1        0.0220
     11 C          13.9668   39.5315    8.6214 C.3     1  UNL1        0.0937
     12 C          12.3909   39.4076   10.5553 C.3     1  UNL1        0.0996
     13 C          14.7664   38.6565   10.8672 C.2     1  UNL1        0.2491
     14 N          13.7164   39.1346   10.0058 N.am    1  UNL1       -0.2757
     15 O          14.6423   38.7912   12.1160 O.2     1  UNL1       -0.2699
     16 C          15.9873   38.0009   10.3416 C.ar    1  UNL1        0.0566
     17 C          15.9104   36.8751    9.5087 C.ar    1  UNL1        0.0414
     18 C          17.0739   36.2464    9.0373 C.ar    1  UNL1        0.1389
     19 C          18.3237   36.7466    9.4129 C.ar    1  UNL1        0.0369
     20 C          18.4134   37.8602   10.2514 C.ar    1  UNL1        0.0033
     21 C          17.2511   38.4812   10.7158 C.ar    1  UNL1        0.0047
     22 C          16.1853   34.0081    8.4739 C.3     1  UNL1        0.2525
     23 O          17.0150   35.1289    8.2001 O.3     1  UNL1       -0.4714
     24 N           7.3891   42.1165    9.3887 N.pl3   1  UNL1       -0.2981
     25 H           7.7211   42.4211    8.5133 H       1  UNL1        0.1536
     26 C           5.7772   44.3322    8.4521 C.3     1  UNL1        0.0340
     27 C           5.1699   43.1309    9.0918 C.ar    1  UNL1        0.0099
     28 C           5.9616   42.0614    9.5428 C.ar    1  UNL1        0.1281
     29 C           4.0118   40.9076   10.2788 C.ar    1  UNL1        0.1003
     30 C           3.1970   41.9521    9.8420 C.ar    1  UNL1        0.0204
     31 C           3.7838   43.0681    9.2458 C.ar    1  UNL1        0.0001
     32 N           5.3603   40.9836   10.1216 N.ar    1  UNL1       -0.2294
@<TRIPOS>BOND
     1    26    27    1
     2    28    32   ar
     3    28    24    1
     4    29    30   ar
     5    31    27   ar
     6     2     3   ar
     7     4     7   ar
     8     5     1   ar
     9     6     4    1
    10     8     3    1
    11     8     9    1
    12     9    10    1
    13    10    11    1
    14    11    14    1
    15    12    14    1
    16    12     8    1
    17    13    16    1
    18    17    18   ar
    19    18    23    1
    20    19    20   ar
    21    21    16   ar
    22    22    23    1
    23    24     1    1
    24    14    13   am
    25    27    28   ar
    26    29    32   ar
    27    30    31   ar
    28     1     2   ar
    29     3     7   ar
    30     4     5   ar
    31    13    15    2
    32    16    17   ar
    33    18    19   ar
    34    20    21   ar
    35    24    25    1
