@<TRIPOS>MOLECULE
Molport-047-071-896 PubChem-132766477
 33 36 0 0 0
SMALL
GASTEIGER

@<TRIPOS>ATOM
      1 C           8.2173   36.0822    1.9596 C.ar    1  UNL1        0.0528
      2 C           9.1684   35.0998    2.2647 C.ar    1  UNL1        0.0294
      3 C          10.1742   35.3774    3.1918 C.ar    1  UNL1        0.0602
      4 C          11.1864   34.3406    3.5211 C.3     1  UNL1        0.0521
      5 C           9.3168   37.5692    3.5158 C.ar    1  UNL1        0.0611
      6 C           8.2965   37.3249    2.5929 C.ar    1  UNL1        0.0294
      7 N          10.2282   36.5951    3.7937 N.ar    1  UNL1       -0.2538
      8 C           9.3947   38.8986    4.1898 C.3     1  UNL1        0.0602
      9 C          10.8511   39.3412    4.3465 C.3     1  UNL1        0.0094
     10 C          10.9225   40.7029    5.0343 C.3     1  UNL1        0.0220
     11 C          10.2386   40.6347    6.3963 C.3     1  UNL1        0.0937
     12 C           8.6968   38.8535    5.5493 C.3     1  UNL1        0.0996
     13 C           7.7422   40.8768    6.6998 C.2     1  UNL1        0.2492
     14 N           8.8767   40.1318    6.2319 N.am    1  UNL1       -0.2757
     15 O           6.5783   40.4179    6.5339 O.2     1  UNL1       -0.2699
     16 C           7.9281   42.1734    7.3707 C.2     1  UNL1        0.0595
     17 C           8.0497   42.2733    8.6913 C.2     1  UNL1        0.0232
     18 C           8.2346   43.5671    9.3572 C.ar    1  UNL1        0.0773
     19 C           9.0646   43.8286   10.4252 C.ar    1  UNL1        0.1175
     20 C           8.0408   45.6225    9.8411 C.ar    1  UNL1        0.1750
     21 N           8.9354   45.1336   10.7252 N.ar    1  UNL1       -0.2225
     22 N           7.5900   44.6840    8.9852 N.ar    1  UNL1       -0.3349
     23 H           6.9382   44.7927    8.2554 H       1  UNL1        0.1675
     24 N           7.1608   35.8556    1.0159 N.pl3   1  UNL1       -0.2825
     25 H           7.4339   35.7173    0.0802 H       1  UNL1        0.1551
     26 C           2.8658   38.1431    1.5839 C.3     1  UNL1        0.0522
     27 C           3.6649   36.8904    1.5594 C.ar    1  UNL1        0.0634
     28 C           3.0465   35.6640    1.7941 C.ar    1  UNL1        0.0296
     29 C           3.8308   34.5125    1.7625 C.ar    1  UNL1        0.0634
     30 C           3.2107   33.1844    2.0073 C.3     1  UNL1        0.0522
     31 C           5.7523   35.8075    1.2806 C.ar    1  UNL1        0.2200
     32 N           5.1622   34.6039    1.5078 N.ar    1  UNL1       -0.2179
     33 N           4.9988   36.9409    1.3083 N.ar    1  UNL1       -0.2179
@<TRIPOS>BOND
     1    26    27    1
     2    27    33   ar
     3    28    29   ar
     4    30    29    1
     5    31    32   ar
     6    31    24    1
     7     2     3   ar
     8     4     3    1
     9     5     7   ar
    10     6     1   ar
    11     8     5    1
    12     8     9    1
    13     9    10    1
    14    10    11    1
    15    11    14    1
    16    12    14    1
    17    12     8    1
    18    13    16    1
    19    17    18    1
    20    19    21   ar
    21    20    22   ar
    22    24     1    1
    23    14    13   am
    24    22    18   ar
    25    27    28   ar
    26    29    32   ar
    27    31    33   ar
    28     1     2   ar
    29     3     7   ar
    30     5     6   ar
    31    13    15    2
    32    16    17    2
    33    18    19   ar
    34    20    21   ar
    35    24    25    1
    36    22    23    1
@<TRIPOS>MOLECULE
Molport-047-071-896 PubChem-132766477
 33 36 0 0 0
SMALL
GASTEIGER

@<TRIPOS>ATOM
      1 C           2.5485   41.9299   12.0376 C.ar    1  UNL1        0.0528
      2 C           1.4280   41.8441   11.2010 C.ar    1  UNL1        0.0294
      3 C           1.5886   41.4553    9.8701 C.ar    1  UNL1        0.0602
      4 C           0.4051   41.3615    8.9766 C.3     1  UNL1        0.0521
      5 C           3.9337   41.2375   10.1819 C.ar    1  UNL1        0.0611
      6 C           3.8089   41.6231   11.5191 C.ar    1  UNL1        0.0294
      7 N           2.8266   41.1622    9.3910 N.ar    1  UNL1       -0.2538
      8 C           5.2832   40.9098    9.6349 C.3     1  UNL1        0.0602
      9 C           6.3671   41.7236   10.3452 C.3     1  UNL1        0.0094
     10 C           7.7447   41.3809    9.7821 C.3     1  UNL1        0.0220
     11 C           7.7756   41.6513    8.2810 C.3     1  UNL1        0.0937
     12 C           5.3263   41.1570    8.1268 C.3     1  UNL1        0.0996
     13 C           6.9257   40.0034    6.5650 C.2     1  UNL1        0.2492
     14 N           6.6820   40.9297    7.6343 N.am    1  UNL1       -0.2757
     15 O           5.9592   39.3895    6.0339 O.2     1  UNL1       -0.2699
     16 C           8.2962   39.7642    6.0848 C.2     1  UNL1        0.0595
     17 C           8.5451   39.0656    4.9809 C.2     1  UNL1        0.0232
     18 C           9.9121   38.8286    4.5050 C.ar    1  UNL1        0.0773
     19 C          10.2894   37.9928    3.4769 C.ar    1  UNL1        0.1175
     20 C          12.0219   38.9368    4.3221 C.ar    1  UNL1        0.1750
     21 N          11.6281   38.0675    3.3680 N.ar    1  UNL1       -0.2225
     22 N          10.9900   39.4235    5.0396 N.ar    1  UNL1       -0.3349
     23 H          11.0199   40.0669    5.7842 H       1  UNL1        0.1675
     24 N           2.4462   42.3233   13.4133 N.pl3   1  UNL1       -0.2825
     25 H           3.2795   42.6199   13.8455 H       1  UNL1        0.1551
     26 C          -2.2062   40.9896   14.1748 C.3     1  UNL1        0.0522
     27 C          -0.9805   41.7015   14.6212 C.ar    1  UNL1        0.0634
     28 C          -0.9732   42.3821   15.8371 C.ar    1  UNL1        0.0296
     29 C           0.1957   43.0372   16.2199 C.ar    1  UNL1        0.0634
     30 C           0.2460   43.7747   17.5089 C.3     1  UNL1        0.0522
     31 C           1.2679   42.3337   14.2307 C.ar    1  UNL1        0.2200
     32 N           1.2895   43.0017   15.4146 N.ar    1  UNL1       -0.2179
     33 N           0.1331   41.6891   13.8437 N.ar    1  UNL1       -0.2179
@<TRIPOS>BOND
     1    26    27    1
     2    27    33   ar
     3    28    29   ar
     4    30    29    1
     5    31    32   ar
     6    31    24    1
     7     2     3   ar
     8     4     3    1
     9     5     7   ar
    10     6     1   ar
    11     8     5    1
    12     8     9    1
    13     9    10    1
    14    10    11    1
    15    11    14    1
    16    12    14    1
    17    12     8    1
    18    13    16    1
    19    17    18    1
    20    19    21   ar
    21    20    22   ar
    22    24     1    1
    23    14    13   am
    24    22    18   ar
    25    27    28   ar
    26    29    32   ar
    27    31    33   ar
    28     1     2   ar
    29     3     7   ar
    30     5     6   ar
    31    13    15    2
    32    16    17    2
    33    18    19   ar
    34    20    21   ar
    35    24    25    1
    36    22    23    1
@<TRIPOS>MOLECULE
Molport-047-071-896 PubChem-132766477
 33 36 0 0 0
SMALL
GASTEIGER

@<TRIPOS>ATOM
      1 C          12.3380   41.7201    7.9722 C.ar    1  UNL1        0.0528
      2 C          11.0407   42.1445    8.2881 C.ar    1  UNL1        0.0294
      3 C          10.1208   41.2287    8.8013 C.ar    1  UNL1        0.0602
      4 C           8.7431   41.6710    9.1391 C.3     1  UNL1        0.0521
      5 C          11.7389   39.4925    8.6937 C.ar    1  UNL1        0.0611
      6 C          12.6847   40.3827    8.1786 C.ar    1  UNL1        0.0294
      7 N          10.4844   39.9328    8.9923 N.ar    1  UNL1       -0.2538
      8 C          12.1166   38.0653    8.9130 C.3     1  UNL1        0.0602
      9 C          11.4555   37.5194   10.1805 C.3     1  UNL1        0.0094
     10 C          11.8445   36.0584   10.3966 C.3     1  UNL1        0.0220
     11 C          13.3617   35.9323   10.4925 C.3     1  UNL1        0.0937
     12 C          13.6362   37.9177    8.9925 C.3     1  UNL1        0.0996
     13 C          14.8643   35.7861    8.4667 C.2     1  UNL1        0.2492
     14 N          13.9753   36.5335    9.3106 N.am    1  UNL1       -0.2757
     15 O          15.3704   36.3328    7.4480 O.2     1  UNL1       -0.2699
     16 C          15.1882   34.3855    8.7818 C.2     1  UNL1        0.0595
     17 C          16.3241   33.8179    8.3864 C.2     1  UNL1        0.0232
     18 C          16.6441   32.4216    8.7016 C.ar    1  UNL1        0.0773
     19 C          17.8974   31.9003    8.9368 C.ar    1  UNL1        0.1175
     20 C          16.4212   30.3503    9.0970 C.ar    1  UNL1        0.1750
     21 N          17.7468   30.5871    9.1865 N.ar    1  UNL1       -0.2225
     22 N          15.7143   31.4587    8.7998 N.ar    1  UNL1       -0.3349
     23 H          14.7405   31.5426    8.6819 H       1  UNL1        0.1675
     24 N          13.3264   42.6147    7.4423 N.pl3   1  UNL1       -0.2825
     25 H          12.9909   43.3594    6.8926 H       1  UNL1        0.1551
     26 C          17.2378   40.6888    9.6771 C.3     1  UNL1        0.0522
     27 C          16.6533   41.6318    8.6884 C.ar    1  UNL1        0.0634
     28 C          17.4861   42.4544    7.9325 C.ar    1  UNL1        0.0296
     29 C          16.8991   43.3249    7.0162 C.ar    1  UNL1        0.0634
     30 C          17.7512   44.2192    6.1901 C.3     1  UNL1        0.0522
     31 C          14.7474   42.5475    7.6223 C.ar    1  UNL1        0.2200
     32 N          15.5479   43.3560    6.8779 N.ar    1  UNL1       -0.2179
     33 N          15.3068   41.6921    8.5215 N.ar    1  UNL1       -0.2179
@<TRIPOS>BOND
     1    26    27    1
     2    27    33   ar
     3    28    29   ar
     4    30    29    1
     5    31    32   ar
     6    31    24    1
     7     2     3   ar
     8     4     3    1
     9     5     7   ar
    10     6     1   ar
    11     8     5    1
    12     8     9    1
    13     9    10    1
    14    10    11    1
    15    11    14    1
    16    12    14    1
    17    12     8    1
    18    13    16    1
    19    17    18    1
    20    19    21   ar
    21    20    22   ar
    22    24     1    1
    23    14    13   am
    24    22    18   ar
    25    27    28   ar
    26    29    32   ar
    27    31    33   ar
    28     1     2   ar
    29     3     7   ar
    30     5     6   ar
    31    13    15    2
    32    16    17    2
    33    18    19   ar
    34    20    21   ar
    35    24    25    1
    36    22    23    1
@<TRIPOS>MOLECULE
Molport-047-071-896 PubChem-132766477
 33 36 0 0 0
SMALL
GASTEIGER

@<TRIPOS>ATOM
      1 C           2.9546   42.0022   11.9436 C.ar    1  UNL1        0.0528
      2 C           2.1836   41.6177   10.8388 C.ar    1  UNL1        0.0294
      3 C           2.8166   41.1779    9.6750 C.ar    1  UNL1        0.0602
      4 C           2.0060   40.7681    8.4992 C.3     1  UNL1        0.0521
      5 C           4.9482   41.4921   10.6759 C.ar    1  UNL1        0.0611
      6 C           4.3473   41.9369   11.8563 C.ar    1  UNL1        0.0294
      7 N           4.1736   41.1241    9.6169 N.ar    1  UNL1       -0.2538
      8 C           6.4367   41.4235   10.5900 C.3     1  UNL1        0.0602
      9 C           7.0676   41.6158   11.9708 C.3     1  UNL1        0.0094
     10 C           8.5900   41.5417   11.8753 C.3     1  UNL1        0.0220
     11 C           9.1030   42.6011   10.9048 C.3     1  UNL1        0.0937
     12 C           6.9669   42.4667    9.6062 C.3     1  UNL1        0.0996
     13 C           9.1661   42.2636    8.4018 C.2     1  UNL1        0.2492
     14 N           8.4269   42.4501    9.6183 N.am    1  UNL1       -0.2757
     15 O           8.5509   42.1273    7.3083 O.2     1  UNL1       -0.2699
     16 C          10.6372   42.2292    8.4222 C.2     1  UNL1        0.0595
     17 C          11.3144   41.0940    8.5680 C.2     1  UNL1        0.0232
     18 C          12.7807   41.0629    8.5883 C.ar    1  UNL1        0.0773
     19 C          13.6270   41.7105    7.7152 C.ar    1  UNL1        0.1175
     20 C          14.7721   40.6113    9.1601 C.ar    1  UNL1        0.1750
     21 N          14.8871   41.4187    8.0850 N.ar    1  UNL1       -0.2225
     22 N          13.4887   40.3725    9.4958 N.ar    1  UNL1       -0.3349
     23 H          13.1490   39.8193   10.2360 H       1  UNL1        0.1675
     24 N           2.3613   42.4622   13.1660 N.pl3   1  UNL1       -0.2825
     25 H           2.9826   42.7851   13.8581 H       1  UNL1        0.1551
     26 C          -1.7582   40.1751   14.5084 C.3     1  UNL1        0.0522
     27 C          -1.0375   41.4223   14.1429 C.ar    1  UNL1        0.0634
     28 C          -1.7169   42.6386   14.1185 C.ar    1  UNL1        0.0296
     29 C          -1.0053   43.7853   13.7707 C.ar    1  UNL1        0.0634
     30 C          -1.6919   45.1026   13.7326 C.3     1  UNL1        0.0522
     31 C           0.9661   42.5052   13.4945 C.ar    1  UNL1        0.2200
     32 N           0.3160   43.6990   13.4666 N.ar    1  UNL1       -0.2179
     33 N           0.2840   41.3766   13.8325 N.ar    1  UNL1       -0.2179
@<TRIPOS>BOND
     1    26    27    1
     2    27    33   ar
     3    28    29   ar
     4    30    29    1
     5    31    32   ar
     6    31    24    1
     7     2     3   ar
     8     4     3    1
     9     5     7   ar
    10     6     1   ar
    11     8     5    1
    12     8     9    1
    13     9    10    1
    14    10    11    1
    15    11    14    1
    16    12    14    1
    17    12     8    1
    18    13    16    1
    19    17    18    1
    20    19    21   ar
    21    20    22   ar
    22    24     1    1
    23    14    13   am
    24    22    18   ar
    25    27    28   ar
    26    29    32   ar
    27    31    33   ar
    28     1     2   ar
    29     3     7   ar
    30     5     6   ar
    31    13    15    2
    32    16    17    2
    33    18    19   ar
    34    20    21   ar
    35    24    25    1
    36    22    23    1
@<TRIPOS>MOLECULE
Molport-047-071-896 PubChem-132766477
 33 36 0 0 0
SMALL
GASTEIGER

@<TRIPOS>ATOM
      1 C           3.0191   42.0888   11.8117 C.ar    1  UNL1        0.0528
      2 C           2.2202   41.5087   10.8177 C.ar    1  UNL1        0.0294
      3 C           2.7497   41.2954    9.5440 C.ar    1  UNL1        0.0602
      4 C           1.9090   40.6803    8.4845 C.3     1  UNL1        0.0521
      5 C           4.8331   42.2159   10.2195 C.ar    1  UNL1        0.0611
      6 C           4.3351   42.4433   11.5051 C.ar    1  UNL1        0.0294
      7 N           4.0337   41.6497    9.2723 N.ar    1  UNL1       -0.2538
      8 C           6.2405   42.5958    9.8992 C.3     1  UNL1        0.0602
      9 C           6.2859   43.5352    8.6922 C.3     1  UNL1        0.0094
     10 C           7.7285   43.9214    8.3723 C.3     1  UNL1        0.0220
     11 C           8.5551   42.6682    8.1013 C.3     1  UNL1        0.0937
     12 C           7.0885   41.3497    9.6433 C.3     1  UNL1        0.0996
     13 C           9.5856   41.2720    9.9374 C.2     1  UNL1        0.2492
     14 N           8.4309   41.7500    9.2311 N.am    1  UNL1       -0.2757
     15 O           9.4428   40.4865   10.9149 O.2     1  UNL1       -0.2699
     16 C          10.9354   41.6932    9.5292 C.2     1  UNL1        0.0595
     17 C          11.6726   40.9777    8.6848 C.2     1  UNL1        0.0232
     18 C          13.0177   41.3999    8.2800 C.ar    1  UNL1        0.0773
     19 C          14.2099   40.9645    8.8156 C.ar    1  UNL1        0.1175
     20 C          14.5886   42.3911    7.2572 C.ar    1  UNL1        0.1750
     21 N          15.2002   41.5978    8.1614 N.ar    1  UNL1       -0.2225
     22 N          13.2452   42.2929    7.3042 N.ar    1  UNL1       -0.3349
     23 H          12.5834   42.7669    6.7504 H       1  UNL1        0.1675
     24 N           2.5309   42.3323   13.1385 N.pl3   1  UNL1       -0.2825
     25 H           3.2057   42.3511   13.8551 H       1  UNL1        0.1551
     26 C          -1.1473   45.3949   14.1841 C.3     1  UNL1        0.0522
     27 C          -0.6214   44.0115   14.0498 C.ar    1  UNL1        0.0634
     28 C          -1.4491   42.9222   14.3137 C.ar    1  UNL1        0.0296
     29 C          -0.9181   41.6411   14.1763 C.ar    1  UNL1        0.0634
     30 C          -1.7669   40.4520   14.4479 C.3     1  UNL1        0.0522
     31 C           1.1717   42.5514   13.5396 C.ar    1  UNL1        0.2200
     32 N           0.3755   41.4791   13.7938 N.ar    1  UNL1       -0.2179
     33 N           0.6667   43.8089   13.6697 N.ar    1  UNL1       -0.2179
@<TRIPOS>BOND
     1    26    27    1
     2    27    33   ar
     3    28    29   ar
     4    30    29    1
     5    31    32   ar
     6    31    24    1
     7     2     3   ar
     8     4     3    1
     9     5     7   ar
    10     6     1   ar
    11     8     5    1
    12     8     9    1
    13     9    10    1
    14    10    11    1
    15    11    14    1
    16    12    14    1
    17    12     8    1
    18    13    16    1
    19    17    18    1
    20    19    21   ar
    21    20    22   ar
    22    24     1    1
    23    14    13   am
    24    22    18   ar
    25    27    28   ar
    26    29    32   ar
    27    31    33   ar
    28     1     2   ar
    29     3     7   ar
    30     5     6   ar
    31    13    15    2
    32    16    17    2
    33    18    19   ar
    34    20    21   ar
    35    24    25    1
    36    22    23    1
@<TRIPOS>MOLECULE
Molport-047-071-896 PubChem-132766477
 33 36 0 0 0
SMALL
GASTEIGER

@<TRIPOS>ATOM
      1 C           3.4336   41.9688   11.5324 C.ar    1  UNL1        0.0528
      2 C           3.0942   42.8061   10.4616 C.ar    1  UNL1        0.0294
      3 C           4.0759   43.1872    9.5455 C.ar    1  UNL1        0.0602
      4 C           3.7237   44.0747    8.4070 C.3     1  UNL1        0.0521
      5 C           5.7118   41.9324   10.7259 C.ar    1  UNL1        0.0611
      6 C           4.7541   41.5313   11.6610 C.ar    1  UNL1        0.0294
      7 N           5.3534   42.7471    9.6941 N.ar    1  UNL1       -0.2538
      8 C           7.1204   41.4601   10.8685 C.3     1  UNL1        0.0602
      9 C           7.6502   41.7548   12.2736 C.3     1  UNL1        0.0094
     10 C           9.0905   41.2664   12.4125 C.3     1  UNL1        0.0220
     11 C           9.9709   41.9359   11.3618 C.3     1  UNL1        0.0937
     12 C           8.0139   42.1071    9.8101 C.3     1  UNL1        0.0996
     13 C          10.1653   41.0958    8.9871 C.2     1  UNL1        0.2492
     14 N           9.4012   41.7110   10.0353 N.am    1  UNL1       -0.2757
     15 O           9.6401   40.9078    7.8550 O.2     1  UNL1       -0.2699
     16 C          11.5573   40.6817    9.2250 C.2     1  UNL1        0.0595
     17 C          11.9502   40.1608   10.3839 C.2     1  UNL1        0.0232
     18 C          13.3384   39.7493   10.6182 C.ar    1  UNL1        0.0773
     19 C          14.4316   40.0734    9.8450 C.ar    1  UNL1        0.1175
     20 C          15.0442   38.8452   11.4954 C.ar    1  UNL1        0.1750
     21 N          15.5083   39.4962   10.4082 N.ar    1  UNL1       -0.2225
     22 N          13.7125   38.9810   11.6532 N.ar    1  UNL1       -0.3349
     23 H          13.1451   38.6036   12.3637 H       1  UNL1        0.1675
     24 N           2.4687   41.5435   12.5050 N.pl3   1  UNL1       -0.2825
     25 H           2.5602   40.6207   12.8358 H       1  UNL1        0.1551
     26 C           0.8399   45.5374   14.8283 C.3     1  UNL1        0.0522
     27 C           0.5747   44.2311   14.1715 C.ar    1  UNL1        0.0634
     28 C          -0.7288   43.7466   14.0836 C.ar    1  UNL1        0.0296
     29 C          -0.9356   42.5175   13.4602 C.ar    1  UNL1        0.0634
     30 C          -2.3102   41.9647   13.3453 C.3     1  UNL1        0.0522
     31 C           1.3861   42.3096   13.0503 C.ar    1  UNL1        0.2200
     32 N           0.1193   41.8246   12.9573 N.ar    1  UNL1       -0.2179
     33 N           1.6033   43.5089   13.6566 N.ar    1  UNL1       -0.2179
@<TRIPOS>BOND
     1    26    27    1
     2    27    33   ar
     3    28    29   ar
     4    30    29    1
     5    31    32   ar
     6    31    24    1
     7     2     3   ar
     8     4     3    1
     9     5     7   ar
    10     6     1   ar
    11     8     5    1
    12     8     9    1
    13     9    10    1
    14    10    11    1
    15    11    14    1
    16    12    14    1
    17    12     8    1
    18    13    16    1
    19    17    18    1
    20    19    21   ar
    21    20    22   ar
    22    24     1    1
    23    14    13   am
    24    22    18   ar
    25    27    28   ar
    26    29    32   ar
    27    31    33   ar
    28     1     2   ar
    29     3     7   ar
    30     5     6   ar
    31    13    15    2
    32    16    17    2
    33    18    19   ar
    34    20    21   ar
    35    24    25    1
    36    22    23    1
@<TRIPOS>MOLECULE
Molport-047-071-896 PubChem-132766477
 33 36 0 0 0
SMALL
GASTEIGER

@<TRIPOS>ATOM
      1 C          12.3056   41.6964    8.1108 C.ar    1  UNL1        0.0528
      2 C          12.5635   40.3196    8.0858 C.ar    1  UNL1        0.0294
      3 C          11.6883   39.4418    8.7276 C.ar    1  UNL1        0.0602
      4 C          11.9546   37.9802    8.7053 C.3     1  UNL1        0.0521
      5 C          10.3175   41.2570    9.4132 C.ar    1  UNL1        0.0611
      6 C          11.1724   42.1636    8.7810 C.ar    1  UNL1        0.0294
      7 N          10.5927   39.9231    9.3726 N.ar    1  UNL1       -0.2538
      8 C           9.1078   41.7630   10.1262 C.3     1  UNL1        0.0602
      9 C           9.2341   41.5356   11.6342 C.3     1  UNL1        0.0094
     10 C           7.9943   42.0580   12.3568 C.3     1  UNL1        0.0220
     11 C           6.7467   41.3648   11.8179 C.3     1  UNL1        0.0937
     12 C           7.8452   41.0922    9.5849 C.3     1  UNL1        0.0996
     13 C           5.5500   42.1128    9.7224 C.2     1  UNL1        0.2492
     14 N           6.6902   41.5248   10.3666 N.am    1  UNL1       -0.2757
     15 O           5.5370   42.2446    8.4673 O.2     1  UNL1       -0.2699
     16 C           4.3963   42.5640   10.5168 C.2     1  UNL1        0.0595
     17 C           3.5202   41.7092   11.0371 C.2     1  UNL1        0.0232
     18 C           2.3711   42.1619   11.8282 C.ar    1  UNL1        0.0773
     19 C           1.1047   41.6197   11.8197 C.ar    1  UNL1        0.1175
     20 C           1.1815   43.2710   13.1888 C.ar    1  UNL1        0.1750
     21 N           0.3574   42.3287   12.6848 N.ar    1  UNL1       -0.2225
     22 N           2.4282   43.1958   12.6822 N.ar    1  UNL1       -0.3349
     23 H           3.2023   43.7674   12.8905 H       1  UNL1        0.1675
     24 N          13.1679   42.6467    7.4695 N.pl3   1  UNL1       -0.2825
     25 H          12.7250   43.3671    6.9655 H       1  UNL1        0.1551
     26 C          17.4047   44.3087    5.6555 C.3     1  UNL1        0.0522
     27 C          16.6624   43.4555    6.6196 C.ar    1  UNL1        0.0634
     28 C          17.3590   42.6714    7.5369 C.ar    1  UNL1        0.0296
     29 C          16.6262   41.8851    8.4240 C.ar    1  UNL1        0.0634
     30 C          17.3301   41.0343    9.4184 C.3     1  UNL1        0.0522
     31 C          14.6018   42.6666    7.4793 C.ar    1  UNL1        0.2200
     32 N          15.2683   41.8965    8.3800 N.ar    1  UNL1       -0.2179
     33 N          15.3043   43.4398    6.6065 N.ar    1  UNL1       -0.2179
@<TRIPOS>BOND
     1    26    27    1
     2    27    33   ar
     3    28    29   ar
     4    30    29    1
     5    31    32   ar
     6    31    24    1
     7     2     3   ar
     8     4     3    1
     9     5     7   ar
    10     6     1   ar
    11     8     5    1
    12     8     9    1
    13     9    10    1
    14    10    11    1
    15    11    14    1
    16    12    14    1
    17    12     8    1
    18    13    16    1
    19    17    18    1
    20    19    21   ar
    21    20    22   ar
    22    24     1    1
    23    14    13   am
    24    22    18   ar
    25    27    28   ar
    26    29    32   ar
    27    31    33   ar
    28     1     2   ar
    29     3     7   ar
    30     5     6   ar
    31    13    15    2
    32    16    17    2
    33    18    19   ar
    34    20    21   ar
    35    24    25    1
    36    22    23    1
@<TRIPOS>MOLECULE
Molport-047-071-896 PubChem-132766477
 33 36 0 0 0
SMALL
GASTEIGER

@<TRIPOS>ATOM
      1 C          15.9833   41.8733    8.1933 C.ar    1  UNL1        0.0528
      2 C          16.2663   43.0229    7.4442 C.ar    1  UNL1        0.0294
      3 C          15.2346   43.6792    6.7710 C.ar    1  UNL1        0.0602
      4 C          15.5266   44.8993    5.9748 C.3     1  UNL1        0.0521
      5 C          13.6595   42.0874    7.5642 C.ar    1  UNL1        0.0611
      6 C          14.6680   41.4061    8.2505 C.ar    1  UNL1        0.0294
      7 N          13.9634   43.2032    6.8435 N.ar    1  UNL1       -0.2538
      8 C          12.2562   41.5835    7.6308 C.3     1  UNL1        0.0602
      9 C          11.6773   41.4072    6.2253 C.3     1  UNL1        0.0094
     10 C          10.2428   40.8891    6.3016 C.3     1  UNL1        0.0220
     11 C           9.3833   41.8537    7.1128 C.3     1  UNL1        0.0937
     12 C          11.3842   42.5293    8.4569 C.3     1  UNL1        0.0996
     13 C           9.2789   41.8194    9.6368 C.2     1  UNL1        0.2492
     14 N           9.9982   42.0712    8.4202 N.am    1  UNL1       -0.2757
     15 O           9.8427   42.0091   10.7499 O.2     1  UNL1       -0.2699
     16 C           7.8881   41.3402    9.5939 C.2     1  UNL1        0.0595
     17 C           6.8616   42.1246    9.9097 C.2     1  UNL1        0.0232
     18 C           5.4764   41.6440    9.8664 C.ar    1  UNL1        0.0773
     19 C           4.8637   40.8235   10.7879 C.ar    1  UNL1        0.1175
     20 C           3.4804   41.3257    9.2253 C.ar    1  UNL1        0.1750
     21 N           3.5990   40.6269   10.3737 N.ar    1  UNL1       -0.2225
     22 N           4.6181   41.9632    8.8851 N.ar    1  UNL1       -0.3349
     23 H           4.7819   42.5318    8.0983 H       1  UNL1        0.1675
     24 N          17.0011   41.1566    8.9063 N.pl3   1  UNL1       -0.2825
     25 H          17.9231   41.4841    8.7972 H       1  UNL1        0.1551
     26 C          18.7523   37.0371   10.8977 C.3     1  UNL1        0.0522
     27 C          17.6524   38.0230   10.7350 C.ar    1  UNL1        0.0634
     28 C          16.4482   37.8425   11.4125 C.ar    1  UNL1        0.0296
     29 C          15.4415   38.7893   11.2332 C.ar    1  UNL1        0.0634
     30 C          14.1421   38.6345   11.9373 C.3     1  UNL1        0.0522
     31 C          16.8282   40.0174    9.7599 C.ar    1  UNL1        0.2200
     32 N          15.6479   39.8540   10.4148 N.ar    1  UNL1       -0.2179
     33 N          17.8207   39.1005    9.9253 N.ar    1  UNL1       -0.2179
@<TRIPOS>BOND
     1    26    27    1
     2    27    33   ar
     3    28    29   ar
     4    30    29    1
     5    31    32   ar
     6    31    24    1
     7     2     3   ar
     8     4     3    1
     9     5     7   ar
    10     6     1   ar
    11     8     5    1
    12     8     9    1
    13     9    10    1
    14    10    11    1
    15    11    14    1
    16    12    14    1
    17    12     8    1
    18    13    16    1
    19    17    18    1
    20    19    21   ar
    21    20    22   ar
    22    24     1    1
    23    14    13   am
    24    22    18   ar
    25    27    28   ar
    26    29    32   ar
    27    31    33   ar
    28     1     2   ar
    29     3     7   ar
    30     5     6   ar
    31    13    15    2
    32    16    17    2
    33    18    19   ar
    34    20    21   ar
    35    24    25    1
    36    22    23    1
@<TRIPOS>MOLECULE
Molport-047-071-896 PubChem-132766477
 33 36 0 0 0
SMALL
GASTEIGER

@<TRIPOS>ATOM
      1 C          15.8018   41.9566    8.0589 C.ar    1  UNL1        0.0528
      2 C          16.0798   43.1022    7.3019 C.ar    1  UNL1        0.0294
      3 C          15.0425   43.7591    6.6379 C.ar    1  UNL1        0.0602
      4 C          15.3290   44.9749    5.8334 C.3     1  UNL1        0.0521
      5 C          13.4716   42.1755    7.4558 C.ar    1  UNL1        0.0611
      6 C          14.4858   41.4938    8.1332 C.ar    1  UNL1        0.0294
      7 N          13.7707   43.2874    6.7271 N.ar    1  UNL1       -0.2538
      8 C          12.0675   41.6764    7.5407 C.3     1  UNL1        0.0602
      9 C          11.4335   41.6056    6.1498 C.3     1  UNL1        0.0094
     10 C           9.9985   41.0918    6.2446 C.3     1  UNL1        0.0220
     11 C           9.1793   42.0003    7.1560 C.3     1  UNL1        0.0937
     12 C          11.2363   42.5651    8.4662 C.3     1  UNL1        0.0996
     13 C           9.1719   41.7842    9.6732 C.2     1  UNL1        0.2492
     14 N           9.8460   42.1191    8.4507 N.am    1  UNL1       -0.2757
     15 O           9.7798   41.8895   10.7742 O.2     1  UNL1       -0.2699
     16 C           7.7764   41.3175    9.6503 C.2     1  UNL1        0.0595
     17 C           6.7533   42.1420    9.8558 C.2     1  UNL1        0.0232
     18 C           5.3634   41.6739    9.8326 C.ar    1  UNL1        0.0773
     19 C           4.7777   40.7992   10.7212 C.ar    1  UNL1        0.1175
     20 C           3.3427   41.4102    9.2465 C.ar    1  UNL1        0.1750
     21 N           3.4970   40.6377   10.3422 N.ar    1  UNL1       -0.2225
     22 N           4.4727   42.0614    8.9064 N.ar    1  UNL1       -0.3349
     23 H           4.6126   42.6788    8.1524 H       1  UNL1        0.1675
     24 N          16.8255   41.2395    8.7631 N.pl3   1  UNL1       -0.2825
     25 H          17.7490   41.5535    8.6293 H       1  UNL1        0.1551
     26 C          14.0418   38.6368   11.8420 C.3     1  UNL1        0.0522
     27 C          15.3306   38.8427   11.1312 C.ar    1  UNL1        0.0634
     28 C          16.3797   37.9444   11.3153 C.ar    1  UNL1        0.0296
     29 C          17.5720   38.1728   10.6308 C.ar    1  UNL1        0.0634
     30 C          18.7156   37.2389   10.7988 C.3     1  UNL1        0.0522
     31 C          16.6566   40.1174    9.6398 C.ar    1  UNL1        0.2200
     32 N          17.6889   39.2489    9.8098 N.ar    1  UNL1       -0.2179
     33 N          15.4859   39.9071   10.3019 N.ar    1  UNL1       -0.2179
@<TRIPOS>BOND
     1    26    27    1
     2    27    33   ar
     3    28    29   ar
     4    30    29    1
     5    31    32   ar
     6    31    24    1
     7     2     3   ar
     8     4     3    1
     9     5     7   ar
    10     6     1   ar
    11     8     5    1
    12     8     9    1
    13     9    10    1
    14    10    11    1
    15    11    14    1
    16    12    14    1
    17    12     8    1
    18    13    16    1
    19    17    18    1
    20    19    21   ar
    21    20    22   ar
    22    24     1    1
    23    14    13   am
    24    22    18   ar
    25    27    28   ar
    26    29    32   ar
    27    31    33   ar
    28     1     2   ar
    29     3     7   ar
    30     5     6   ar
    31    13    15    2
    32    16    17    2
    33    18    19   ar
    34    20    21   ar
    35    24    25    1
    36    22    23    1
@<TRIPOS>MOLECULE
Molport-047-071-896 PubChem-132766477
 33 36 0 0 0
SMALL
GASTEIGER

@<TRIPOS>ATOM
      1 C          14.5288   39.9349    9.4840 C.ar    1  UNL1        0.0528
      2 C          14.4581   38.6534   10.0456 C.ar    1  UNL1        0.0294
      3 C          13.2226   38.1434   10.4477 C.ar    1  UNL1        0.0602
      4 C          13.1391   36.7849   11.0438 C.3     1  UNL1        0.0521
      5 C          12.1353   40.1377    9.7515 C.ar    1  UNL1        0.0611
      6 C          13.3554   40.6787    9.3380 C.ar    1  UNL1        0.0294
      7 N          12.0959   38.8884   10.2942 N.ar    1  UNL1       -0.2538
      8 C          10.8853   40.9373    9.5912 C.3     1  UNL1        0.0602
      9 C          10.3268   41.3476   10.9556 C.3     1  UNL1        0.0094
     10 C           9.0498   42.1673   10.7833 C.3     1  UNL1        0.0220
     11 C           8.0141   41.3606   10.0064 C.3     1  UNL1        0.0937
     12 C           9.8421   40.1505    8.7975 C.3     1  UNL1        0.0996
     13 C           7.9831   41.2216    7.4839 C.2     1  UNL1        0.2492
     14 N           8.5959   40.9097    8.7442 N.am    1  UNL1       -0.2757
     15 O           8.5166   40.8244    6.4113 O.2     1  UNL1       -0.2699
     16 C           6.7369   42.0029    7.4350 C.2     1  UNL1        0.0595
     17 C           6.4747   42.9684    8.3112 C.2     1  UNL1        0.0232
     18 C           5.2316   43.7452    8.2602 C.ar    1  UNL1        0.0773
     19 C           4.1243   43.5747    9.0618 C.ar    1  UNL1        0.1175
     20 C           3.7832   45.1810    7.6796 C.ar    1  UNL1        0.1750
     21 N           3.2113   44.4888    8.6870 N.ar    1  UNL1       -0.2225
     22 N           5.0269   44.7484    7.3922 N.ar    1  UNL1       -0.3349
     23 H           5.6431   45.0894    6.7043 H       1  UNL1        0.1675
     24 N          15.7691   40.5121    9.0520 N.pl3   1  UNL1       -0.2825
     25 H          16.5882   40.0343    9.3166 H       1  UNL1        0.1551
     26 C          14.0705   43.7801    5.8213 C.3     1  UNL1        0.0522
     27 C          15.1524   43.2985    6.7190 C.ar    1  UNL1        0.0634
     28 C          16.3487   44.0070    6.8116 C.ar    1  UNL1        0.0296
     29 C          17.3385   43.5225    7.6645 C.ar    1  UNL1        0.0634
     30 C          18.6291   44.2479    7.7927 C.3     1  UNL1        0.0522
     31 C          15.9514   41.7059    8.2787 C.ar    1  UNL1        0.2200
     32 N          17.1238   42.3871    8.3790 N.ar    1  UNL1       -0.2179
     33 N          14.9753   42.1673    7.4494 N.ar    1  UNL1       -0.2179
@<TRIPOS>BOND
     1    26    27    1
     2    27    33   ar
     3    28    29   ar
     4    30    29    1
     5    31    32   ar
     6    31    24    1
     7     2     3   ar
     8     4     3    1
     9     5     7   ar
    10     6     1   ar
    11     8     5    1
    12     8     9    1
    13     9    10    1
    14    10    11    1
    15    11    14    1
    16    12    14    1
    17    12     8    1
    18    13    16    1
    19    17    18    1
    20    19    21   ar
    21    20    22   ar
    22    24     1    1
    23    14    13   am
    24    22    18   ar
    25    27    28   ar
    26    29    32   ar
    27    31    33   ar
    28     1     2   ar
    29     3     7   ar
    30     5     6   ar
    31    13    15    2
    32    16    17    2
    33    18    19   ar
    34    20    21   ar
    35    24    25    1
    36    22    23    1
