@<TRIPOS>MOLECULE
MolPort-016-719-737 19716250 MCULE-2089122661 PubChem-46976687 ZINC000019716250
 29 32 0 0 0
SMALL
GASTEIGER

@<TRIPOS>ATOM
      1 C          10.8045   41.4637    9.8200 C.2     1  UNL1        0.2295
      2 O          10.8029   42.6011   10.3598 O.2     1  UNL1       -0.2747
      3 N           9.7166   41.0302    8.9955 N.am    1  UNL1       -0.2641
      4 H           9.8239   40.1668    8.5348 H       1  UNL1        0.1567
      5 C           5.2349   42.6189    9.9697 C.ar    1  UNL1        0.1566
      6 C           4.2345   43.4443    9.4139 C.ar    1  UNL1        0.0385
      7 C           4.4358   44.0838    8.1762 C.ar    1  UNL1        0.0037
      8 C           5.6376   43.9117    7.4737 C.ar    1  UNL1        0.0083
      9 C           6.6113   43.0945    8.0399 C.ar    1  UNL1        0.0527
     10 C           8.4874   41.7323    8.7768 C.ar    1  UNL1        0.1656
     11 C           6.4282   42.4577    9.2587 C.ar    1  UNL1        0.1230
     12 S           8.1289   42.7128    7.4375 S.2     1  UNL1       -0.0513
     13 N           7.4743   41.6982    9.6752 N.ar    1  UNL1       -0.2209
     14 O           5.0637   41.9742   11.2013 O.3     1  UNL1       -0.4739
     15 C           3.5478   40.3731   10.2162 C.3     1  UNL1        0.0512
     16 C           4.5416   40.6558   11.3280 C.3     1  UNL1        0.2056
     17 C          11.9495   40.5420   10.0660 C.3     1  UNL1        0.1100
     18 C          12.5049   40.0126    8.7483 C.3     1  UNL1        0.1202
     19 C          14.7514   40.9715    8.6985 C.ar    1  UNL1        0.1823
     20 C          15.3299   42.6437    7.1817 C.ar    1  UNL1        0.1673
     21 C          14.0854   42.6421    6.6521 C.ar    1  UNL1        0.1124
     22 C          14.0881   43.5952    5.6485 C.ar    1  UNL1        0.1280
     23 C          17.4755   43.8667    6.8096 C.3     1  UNL1        0.1554
     24 C          13.1208   41.7787    7.1507 C.ar    1  UNL1        0.2665
     25 O          11.9554   41.7659    6.6679 O.2     1  UNL1       -0.2668
     26 N          13.4784   40.9396    8.1781 N.ar    1  UNL1       -0.2776
     27 N          15.6929   41.8282    8.1996 N.ar    1  UNL1       -0.2064
     28 N          15.3388   44.1323    5.6162 N.ar    1  UNL1       -0.1662
     29 N          16.0827   43.5486    6.5492 N.ar    1  UNL1       -0.2318
@<TRIPOS>BOND
     1    15    16    1
     2    16    14    1
     3     5    14    1
     4     6     7   ar
     5     8     9   ar
     6     9    12   ar
     7    10    12   ar
     8    10     3    1
     9    17     1    1
    10    17    18    1
    11    18    26    1
    12    20    27   ar
    13    21    22   ar
    14    21    24   ar
    15    23    29    1
    16    24    26   ar
    17    11    13   ar
    18    11     5   ar
    19     3     1   am
    20    26    19   ar
    21    29    28   ar
    22    29    20   ar
    23     5     6   ar
    24     7     8   ar
    25    10    13   ar
    26     1     2    2
    27    19    27   ar
    28    20    21   ar
    29    22    28   ar
    30    24    25    2
    31    11     9   ar
    32     3     4    1
@<TRIPOS>MOLECULE
MolPort-016-719-737 19716250 MCULE-2089122661 PubChem-46976687 ZINC000019716250
 29 32 0 0 0
SMALL
GASTEIGER

@<TRIPOS>ATOM
      1 C          11.5315   40.6215   10.1898 C.2     1  UNL1        0.2295
      2 O          10.5520   39.8387   10.3025 O.2     1  UNL1       -0.2747
      3 N          11.3563   41.9738    9.7515 N.am    1  UNL1       -0.2641
      4 H          12.1511   42.5544    9.7712 H       1  UNL1        0.1567
      5 C           7.5064   42.6057    6.8641 C.ar    1  UNL1        0.1566
      6 C           6.3459   43.4024    6.7665 C.ar    1  UNL1        0.0385
      7 C           6.0672   44.3881    7.7319 C.ar    1  UNL1        0.0037
      8 C           6.9400   44.5944    8.8104 C.ar    1  UNL1        0.0083
      9 C           8.0782   43.7974    8.8884 C.ar    1  UNL1        0.0527
     10 C          10.1358   42.5624    9.2874 C.ar    1  UNL1        0.1656
     11 C           8.3666   42.8218    7.9452 C.ar    1  UNL1        0.1230
     12 S           9.2838   43.8156   10.0537 S.2     1  UNL1       -0.0513
     13 N           9.5132   42.1280    8.1656 N.ar    1  UNL1       -0.2209
     14 O           7.8063   41.6148    5.9208 O.3     1  UNL1       -0.4739
     15 C           6.3952   39.6695    6.1585 C.3     1  UNL1        0.0512
     16 C           7.8069   40.2232    6.2216 C.3     1  UNL1        0.2056
     17 C          12.9023   40.1220   10.4941 C.3     1  UNL1        0.1100
     18 C          13.5868   39.6260    9.2251 C.3     1  UNL1        0.1202
     19 C          15.6680   40.9013    9.1204 C.ar    1  UNL1        0.1823
     20 C          15.9706   42.6158    7.5711 C.ar    1  UNL1        0.1673
     21 C          14.7310   42.4245    7.0651 C.ar    1  UNL1        0.1124
     22 C          14.5777   43.3519    6.0492 C.ar    1  UNL1        0.1280
     23 C          17.9080   44.1326    7.1427 C.3     1  UNL1        0.1554
     24 C          13.9113   41.4377    7.5931 C.ar    1  UNL1        0.2665
     25 O          12.7524   41.2474    7.1325 O.2     1  UNL1       -0.2668
     26 N          14.4048   40.6759    8.6245 N.ar    1  UNL1       -0.2776
     27 N          16.4658   41.8782    8.5927 N.ar    1  UNL1       -0.2064
     28 N          15.7358   44.0650    5.9863 N.ar    1  UNL1       -0.1662
     29 N          16.5724   43.6108    6.9128 N.ar    1  UNL1       -0.2318
@<TRIPOS>BOND
     1    15    16    1
     2    16    14    1
     3     5    14    1
     4     6     7   ar
     5     8     9   ar
     6     9    12   ar
     7    10    12   ar
     8    10     3    1
     9    17     1    1
    10    17    18    1
    11    18    26    1
    12    20    27   ar
    13    21    22   ar
    14    21    24   ar
    15    23    29    1
    16    24    26   ar
    17    11    13   ar
    18    11     5   ar
    19     3     1   am
    20    26    19   ar
    21    29    28   ar
    22    29    20   ar
    23     5     6   ar
    24     7     8   ar
    25    10    13   ar
    26     1     2    2
    27    19    27   ar
    28    20    21   ar
    29    22    28   ar
    30    24    25    2
    31    11     9   ar
    32     3     4    1
@<TRIPOS>MOLECULE
MolPort-016-719-737 19716250 MCULE-2089122661 PubChem-46976687 ZINC000019716250
 29 32 0 0 0
SMALL
GASTEIGER

@<TRIPOS>ATOM
      1 C          11.1103   41.8771    6.3885 C.2     1  UNL1        0.2295
      2 O          11.1612   41.3883    7.5476 O.2     1  UNL1       -0.2747
      3 N          12.2685   42.4510    5.7716 N.am    1  UNL1       -0.2641
      4 H          12.1788   42.7336    4.8329 H       1  UNL1        0.1567
      5 C          16.0962   41.4285    8.5756 C.ar    1  UNL1        0.1566
      6 C          17.3498   41.9677    8.9344 C.ar    1  UNL1        0.0385
      7 C          17.7811   43.1986    8.4051 C.ar    1  UNL1        0.0037
      8 C          16.9704   43.9109    7.5091 C.ar    1  UNL1        0.0083
      9 C          15.7384   43.3610    7.1677 C.ar    1  UNL1        0.0527
     10 C          13.5449   42.6531    6.3895 C.ar    1  UNL1        0.1656
     11 C          15.2994   42.1491    7.6805 C.ar    1  UNL1        0.1230
     12 S          14.5749   43.9778    6.1295 S.2     1  UNL1       -0.0513
     13 N          14.0762   41.7487    7.2465 N.ar    1  UNL1       -0.2209
     14 O          15.6438   40.2040    9.0829 O.3     1  UNL1       -0.4739
     15 C          14.1108   39.6910   10.8770 C.3     1  UNL1        0.0512
     16 C          14.2786   39.9408    9.3894 C.3     1  UNL1        0.2056
     17 C           9.8125   41.8808    5.6556 C.3     1  UNL1        0.1100
     18 C           8.8986   40.7772    6.1770 C.3     1  UNL1        0.1202
     19 C           7.5831   40.6482    8.2317 C.ar    1  UNL1        0.1823
     20 C           5.9790   42.2558    8.7553 C.ar    1  UNL1        0.1673
     21 C           6.2374   42.9353    7.6148 C.ar    1  UNL1        0.1124
     22 C           5.3905   44.0301    7.6135 C.ar    1  UNL1        0.1280
     23 C           4.4499   42.4865   10.7165 C.3     1  UNL1        0.1554
     24 C           7.2031   42.4702    6.7342 C.ar    1  UNL1        0.2665
     25 O           7.4551   43.0923    5.6661 O.2     1  UNL1       -0.2668
     26 N           7.8752   41.3190    7.0667 N.ar    1  UNL1       -0.2776
     27 N           6.6277   41.1158    9.0907 N.ar    1  UNL1       -0.2064
     28 N           4.6554   43.9631    8.7576 N.ar    1  UNL1       -0.1662
     29 N           5.0201   42.8843    9.4415 N.ar    1  UNL1       -0.2318
@<TRIPOS>BOND
     1    15    16    1
     2    16    14    1
     3     5    14    1
     4     6     7   ar
     5     8     9   ar
     6     9    12   ar
     7    10    12   ar
     8    10     3    1
     9    17     1    1
    10    17    18    1
    11    18    26    1
    12    20    27   ar
    13    21    22   ar
    14    21    24   ar
    15    23    29    1
    16    24    26   ar
    17    11    13   ar
    18    11     5   ar
    19     3     1   am
    20    26    19   ar
    21    29    28   ar
    22    29    20   ar
    23     5     6   ar
    24     7     8   ar
    25    10    13   ar
    26     1     2    2
    27    19    27   ar
    28    20    21   ar
    29    22    28   ar
    30    24    25    2
    31    11     9   ar
    32     3     4    1
@<TRIPOS>MOLECULE
MolPort-016-719-737 19716250 MCULE-2089122661 PubChem-46976687 ZINC000019716250
 29 32 0 0 0
SMALL
GASTEIGER

@<TRIPOS>ATOM
      1 C          11.3486   41.7268    8.2403 C.2     1  UNL1        0.2295
      2 O          11.3868   42.8198    8.8639 O.2     1  UNL1       -0.2747
      3 N          12.4843   41.2457    7.5122 N.am    1  UNL1       -0.2641
      4 H          12.4140   40.3443    7.1226 H       1  UNL1        0.1567
      5 C          17.0957   42.5447    8.2910 C.ar    1  UNL1        0.1566
      6 C          18.0921   43.3799    7.7429 C.ar    1  UNL1        0.0385
      7 C          17.8258   44.1665    6.6064 C.ar    1  UNL1        0.0037
      8 C          16.5626   44.1321    5.9976 C.ar    1  UNL1        0.0083
      9 C          15.5945   43.3011    6.5534 C.ar    1  UNL1        0.0527
     10 C          13.7126   41.9503    7.2963 C.ar    1  UNL1        0.1656
     11 C          15.8416   42.5198    7.6728 C.ar    1  UNL1        0.1230
     12 S          14.0162   43.0552    6.0432 S.2     1  UNL1       -0.0513
     13 N          14.7944   41.7619    8.0895 N.ar    1  UNL1       -0.2209
     14 O          17.3342   41.7480    9.4180 O.3     1  UNL1       -0.4739
     15 C          18.0410   39.5340   10.0741 C.3     1  UNL1        0.0512
     16 C          16.9179   40.3902    9.5182 C.3     1  UNL1        0.2056
     17 C          10.0879   40.9319    8.2397 C.3     1  UNL1        0.1100
     18 C           9.8742   40.2635    9.5934 C.3     1  UNL1        0.1202
     19 C          11.9868   40.1132   10.8113 C.ar    1  UNL1        0.1823
     20 C          13.2787   38.1737   10.7767 C.ar    1  UNL1        0.1673
     21 C          12.3867   37.5523    9.9721 C.ar    1  UNL1        0.1124
     22 C          12.8890   36.2835    9.7408 C.ar    1  UNL1        0.1280
     23 C          15.4575   37.6203   11.8649 C.3     1  UNL1        0.1554
     24 C          11.2427   38.2197    9.5593 C.ar    1  UNL1        0.2665
     25 O          10.4017   37.6539    8.8084 O.2     1  UNL1       -0.2668
     26 N          11.0562   39.5079    9.9989 N.ar    1  UNL1       -0.2776
     27 N          13.1113   39.4454   11.2100 N.ar    1  UNL1       -0.2064
     28 N          14.0666   36.1945   10.4184 N.ar    1  UNL1       -0.1662
     29 N          14.2928   37.3452   11.0422 N.ar    1  UNL1       -0.2318
@<TRIPOS>BOND
     1    15    16    1
     2    16    14    1
     3     5    14    1
     4     6     7   ar
     5     8     9   ar
     6     9    12   ar
     7    10    12   ar
     8    10     3    1
     9    17     1    1
    10    17    18    1
    11    18    26    1
    12    20    27   ar
    13    21    22   ar
    14    21    24   ar
    15    23    29    1
    16    24    26   ar
    17    11    13   ar
    18    11     5   ar
    19     3     1   am
    20    26    19   ar
    21    29    28   ar
    22    29    20   ar
    23     5     6   ar
    24     7     8   ar
    25    10    13   ar
    26     1     2    2
    27    19    27   ar
    28    20    21   ar
    29    22    28   ar
    30    24    25    2
    31    11     9   ar
    32     3     4    1
@<TRIPOS>MOLECULE
MolPort-016-719-737 19716250 MCULE-2089122661 PubChem-46976687 ZINC000019716250
 29 32 0 0 0
SMALL
GASTEIGER

@<TRIPOS>ATOM
      1 C          10.2383   40.4058    6.8041 C.2     1  UNL1        0.2295
      2 O           9.8850   39.2143    7.0055 O.2     1  UNL1       -0.2747
      3 N           9.4918   41.5038    7.3413 N.am    1  UNL1       -0.2641
      4 H           9.8734   42.4032    7.2198 H       1  UNL1        0.1567
      5 C           6.4625   41.6474   11.1309 C.ar    1  UNL1        0.1566
      6 C           5.0887   41.5142   11.4239 C.ar    1  UNL1        0.0385
      7 C           4.1588   41.2415   10.4029 C.ar    1  UNL1        0.0037
      8 C           4.5835   41.0986    9.0737 C.ar    1  UNL1        0.0083
      9 C           5.9424   41.2347    8.8062 C.ar    1  UNL1        0.0527
     10 C           8.2433   41.4190    8.0383 C.ar    1  UNL1        0.1656
     11 C           6.8709   41.5036    9.8012 C.ar    1  UNL1        0.1230
     12 S           6.7291   41.1212    7.3297 S.2     1  UNL1       -0.0513
     13 N           8.1566   41.6100    9.3765 N.ar    1  UNL1       -0.2209
     14 O           7.4089   41.9231   12.1258 O.3     1  UNL1       -0.4739
     15 C           9.7312   41.3125   12.3825 C.3     1  UNL1        0.0512
     16 C           8.2870   40.9401   12.6639 C.3     1  UNL1        0.2056
     17 C          11.4423   40.6777    5.9689 C.3     1  UNL1        0.1100
     18 C          11.7975   42.1601    6.0058 C.3     1  UNL1        0.1202
     19 C          13.6909   41.4520    7.3779 C.ar    1  UNL1        0.1823
     20 C          15.6689   42.6823    7.4542 C.ar    1  UNL1        0.1673
     21 C          15.1727   43.5990    6.5924 C.ar    1  UNL1        0.1124
     22 C          16.1698   44.5414    6.4098 C.ar    1  UNL1        0.1280
     23 C          17.7986   42.3106    8.7047 C.3     1  UNL1        0.1554
     24 C          13.8870   43.4553    6.0915 C.ar    1  UNL1        0.2665
     25 O          13.4099   44.3022    5.2875 O.2     1  UNL1       -0.2668
     26 N          13.1586   42.3624    6.4945 N.ar    1  UNL1       -0.2776
     27 N          14.9588   41.6056    7.8659 N.ar    1  UNL1       -0.2064
     28 N          17.2280   44.1507    7.1722 N.ar    1  UNL1       -0.1662
     29 N          16.9135   43.0234    7.8006 N.ar    1  UNL1       -0.2318
@<TRIPOS>BOND
     1    15    16    1
     2    16    14    1
     3     5    14    1
     4     6     7   ar
     5     8     9   ar
     6     9    12   ar
     7    10    12   ar
     8    10     3    1
     9    17     1    1
    10    17    18    1
    11    18    26    1
    12    20    27   ar
    13    21    22   ar
    14    21    24   ar
    15    23    29    1
    16    24    26   ar
    17    11    13   ar
    18    11     5   ar
    19     3     1   am
    20    26    19   ar
    21    29    28   ar
    22    29    20   ar
    23     5     6   ar
    24     7     8   ar
    25    10    13   ar
    26     1     2    2
    27    19    27   ar
    28    20    21   ar
    29    22    28   ar
    30    24    25    2
    31    11     9   ar
    32     3     4    1
@<TRIPOS>MOLECULE
MolPort-016-719-737 19716250 MCULE-2089122661 PubChem-46976687 ZINC000019716250
 29 32 0 0 0
SMALL
GASTEIGER

@<TRIPOS>ATOM
      1 C          11.0981   42.1895    9.0503 C.2     1  UNL1        0.2295
      2 O          11.3595   43.2969    9.5891 O.2     1  UNL1       -0.2747
      3 N          12.0410   41.5401    8.1897 N.am    1  UNL1       -0.2641
      4 H          11.8072   40.6372    7.8743 H       1  UNL1        0.1567
      5 C          16.8525   42.1646    8.0582 C.ar    1  UNL1        0.1566
      6 C          17.8321   42.8767    7.3341 C.ar    1  UNL1        0.0385
      7 C          17.4648   43.7365    6.2818 C.ar    1  UNL1        0.0037
      8 C          16.1157   43.8992    5.9340 C.ar    1  UNL1        0.0083
      9 C          15.1658   43.1870    6.6601 C.ar    1  UNL1        0.0527
     10 C          13.2914   42.0780    7.7440 C.ar    1  UNL1        0.1656
     11 C          15.5119   42.3358    7.6995 C.ar    1  UNL1        0.1230
     12 S          13.5000   43.1796    6.4686 S.2     1  UNL1       -0.0513
     13 N          14.4685   41.7124    8.3057 N.ar    1  UNL1       -0.2209
     14 O          17.1895   41.2990    9.1065 O.3     1  UNL1       -0.4739
     15 C          17.0824   39.2496   10.3793 C.3     1  UNL1        0.0512
     16 C          16.3052   40.3063    9.6160 C.3     1  UNL1        0.2056
     17 C           9.7711   41.5561    9.2933 C.3     1  UNL1        0.1100
     18 C           9.1580   42.0751   10.5894 C.3     1  UNL1        0.1202
     19 C           6.9342   41.4653   11.3967 C.ar    1  UNL1        0.1823
     20 C           5.0019   42.2421   10.3504 C.ar    1  UNL1        0.1673
     21 C           5.7292   42.9253    9.4374 C.ar    1  UNL1        0.1124
     22 C           4.8187   43.5473    8.6009 C.ar    1  UNL1        0.1280
     23 C           2.5849   41.8614   10.8511 C.3     1  UNL1        0.1554
     24 C           7.1151   42.8906    9.4882 C.ar    1  UNL1        0.2665
     25 O           7.8073   43.5219    8.6434 O.2     1  UNL1       -0.2668
     26 N           7.7034   42.1543   10.4878 N.ar    1  UNL1       -0.2776
     27 N           5.5689   41.5060   11.3351 N.ar    1  UNL1       -0.2064
     28 N           3.5772   43.2110    9.0473 N.ar    1  UNL1       -0.1662
     29 N           3.7001   42.4201   10.1074 N.ar    1  UNL1       -0.2318
@<TRIPOS>BOND
     1    15    16    1
     2    16    14    1
     3     5    14    1
     4     6     7   ar
     5     8     9   ar
     6     9    12   ar
     7    10    12   ar
     8    10     3    1
     9    17     1    1
    10    17    18    1
    11    18    26    1
    12    20    27   ar
    13    21    22   ar
    14    21    24   ar
    15    23    29    1
    16    24    26   ar
    17    11    13   ar
    18    11     5   ar
    19     3     1   am
    20    26    19   ar
    21    29    28   ar
    22    29    20   ar
    23     5     6   ar
    24     7     8   ar
    25    10    13   ar
    26     1     2    2
    27    19    27   ar
    28    20    21   ar
    29    22    28   ar
    30    24    25    2
    31    11     9   ar
    32     3     4    1
@<TRIPOS>MOLECULE
MolPort-016-719-737 19716250 MCULE-2089122661 PubChem-46976687 ZINC000019716250
 29 32 0 0 0
SMALL
GASTEIGER

@<TRIPOS>ATOM
      1 C          11.3201   40.8377    6.3019 C.2     1  UNL1        0.2295
      2 O          11.9417   39.8723    6.8182 O.2     1  UNL1       -0.2747
      3 N          11.9575   42.1018    6.0844 N.am    1  UNL1       -0.2641
      4 H          11.4403   42.7829    5.5968 H       1  UNL1        0.1567
      5 C          16.1809   41.6874    8.4403 C.ar    1  UNL1        0.1566
      6 C          17.4123   42.3618    8.5811 C.ar    1  UNL1        0.0385
      7 C          17.6565   43.5643    7.8915 C.ar    1  UNL1        0.0037
      8 C          16.6777   44.1130    7.0498 C.ar    1  UNL1        0.0083
      9 C          15.4708   43.4316    6.9242 C.ar    1  UNL1        0.0527
     10 C          13.2753   42.4700    6.5082 C.ar    1  UNL1        0.1656
     11 C          15.2152   42.2456    7.5969 C.ar    1  UNL1        0.1230
     12 S          14.1352   43.8422    5.9972 S.2     1  UNL1       -0.0513
     13 N          13.9915   41.7038    7.3654 N.ar    1  UNL1       -0.2209
     14 O          15.9125   40.4873    9.1105 O.3     1  UNL1       -0.4739
     15 C          14.7196   39.3725   10.8898 C.3     1  UNL1        0.0512
     16 C          14.6168   40.1238    9.5751 C.3     1  UNL1        0.2056
     17 C           9.8859   40.6679    5.9341 C.3     1  UNL1        0.1100
     18 C           9.0943   41.9286    6.2639 C.3     1  UNL1        0.1202
     19 C           7.0405   41.2688    7.4109 C.ar    1  UNL1        0.1823
     20 C           6.8303   41.4332    9.7261 C.ar    1  UNL1        0.1673
     21 C           8.0856   41.9238    9.8401 C.ar    1  UNL1        0.1124
     22 C           8.2953   42.1467   11.1899 C.ar    1  UNL1        0.1280
     23 C           4.9376   40.8749   11.2570 C.3     1  UNL1        0.1554
     24 C           8.8661   42.1014    8.7071 C.ar    1  UNL1        0.2665
     25 O          10.0384   42.5586    8.7970 O.2     1  UNL1       -0.2668
     26 N           8.3233   41.7588    7.4924 N.ar    1  UNL1       -0.2776
     27 N           6.2805   41.0998    8.5347 N.ar    1  UNL1       -0.2064
     28 N           7.1532   41.7796   11.8338 N.ar    1  UNL1       -0.1662
     29 N           6.2725   41.3490   10.9374 N.ar    1  UNL1       -0.2318
@<TRIPOS>BOND
     1    15    16    1
     2    16    14    1
     3     5    14    1
     4     6     7   ar
     5     8     9   ar
     6     9    12   ar
     7    10    12   ar
     8    10     3    1
     9    17     1    1
    10    17    18    1
    11    18    26    1
    12    20    27   ar
    13    21    22   ar
    14    21    24   ar
    15    23    29    1
    16    24    26   ar
    17    11    13   ar
    18    11     5   ar
    19     3     1   am
    20    26    19   ar
    21    29    28   ar
    22    29    20   ar
    23     5     6   ar
    24     7     8   ar
    25    10    13   ar
    26     1     2    2
    27    19    27   ar
    28    20    21   ar
    29    22    28   ar
    30    24    25    2
    31    11     9   ar
    32     3     4    1
@<TRIPOS>MOLECULE
MolPort-016-719-737 19716250 MCULE-2089122661 PubChem-46976687 ZINC000019716250
 29 32 0 0 0
SMALL
GASTEIGER

@<TRIPOS>ATOM
      1 C          11.4928   40.0949   10.5450 C.2     1  UNL1        0.2295
      2 O          10.9549   38.9938   10.2568 O.2     1  UNL1       -0.2747
      3 N          10.7041   41.2547   10.8353 N.am    1  UNL1       -0.2641
      4 H          11.1874   42.0570   11.1386 H       1  UNL1        0.1567
      5 C           6.3811   41.3922    8.6327 C.ar    1  UNL1        0.1566
      6 C           5.0093   41.4948    8.9466 C.ar    1  UNL1        0.0385
      7 C           4.5844   41.6115   10.2835 C.ar    1  UNL1        0.0037
      8 C           5.5199   41.6265   11.3285 C.ar    1  UNL1        0.0083
      9 C           6.8676   41.5231   10.9973 C.ar    1  UNL1        0.0527
     10 C           9.2797   41.3593   10.7268 C.ar    1  UNL1        0.1656
     11 C           7.3021   41.4072    9.6849 C.ar    1  UNL1        0.1230
     12 S           8.1937   41.5090   12.0235 S.2     1  UNL1       -0.0513
     13 N           8.6480   41.3128    9.5294 N.ar    1  UNL1       -0.2209
     14 O           6.8319   41.2704    7.3123 O.3     1  UNL1       -0.4739
     15 C           7.8749   39.4272    6.1518 C.3     1  UNL1        0.0512
     16 C           6.5753   40.1293    6.5004 C.3     1  UNL1        0.2056
     17 C          12.9796   40.1981   10.5586 C.3     1  UNL1        0.1100
     18 C          13.5660   39.6730    9.2527 C.3     1  UNL1        0.1202
     19 C          15.4919   41.0979    8.7741 C.ar    1  UNL1        0.1823
     20 C          15.4126   42.7411    7.1232 C.ar    1  UNL1        0.1673
     21 C          14.1321   42.4261    6.8224 C.ar    1  UNL1        0.1124
     22 C          13.7504   43.2803    5.8025 C.ar    1  UNL1        0.1280
     23 C          17.1279   44.3770    6.3365 C.3     1  UNL1        0.1554
     24 C          13.4875   41.4099    7.5126 C.ar    1  UNL1        0.2665
     25 O          12.2933   41.1048    7.2442 O.2     1  UNL1       -0.2668
     26 N          14.1926   40.7478    8.4883 N.ar    1  UNL1       -0.2776
     27 N          16.1158   42.1025    8.0879 N.ar    1  UNL1       -0.2064
     28 N          14.8211   44.0764    5.5314 N.ar    1  UNL1       -0.1662
     29 N          15.8224   43.7411    6.3374 N.ar    1  UNL1       -0.2318
@<TRIPOS>BOND
     1    15    16    1
     2    16    14    1
     3     5    14    1
     4     6     7   ar
     5     8     9   ar
     6     9    12   ar
     7    10    12   ar
     8    10     3    1
     9    17     1    1
    10    17    18    1
    11    18    26    1
    12    20    27   ar
    13    21    22   ar
    14    21    24   ar
    15    23    29    1
    16    24    26   ar
    17    11    13   ar
    18    11     5   ar
    19     3     1   am
    20    26    19   ar
    21    29    28   ar
    22    29    20   ar
    23     5     6   ar
    24     7     8   ar
    25    10    13   ar
    26     1     2    2
    27    19    27   ar
    28    20    21   ar
    29    22    28   ar
    30    24    25    2
    31    11     9   ar
    32     3     4    1
@<TRIPOS>MOLECULE
MolPort-016-719-737 19716250 MCULE-2089122661 PubChem-46976687 ZINC000019716250
 29 32 0 0 0
SMALL
GASTEIGER

@<TRIPOS>ATOM
      1 C          11.9190   39.9712    7.7165 C.2     1  UNL1        0.2295
      2 O          12.8542   39.1326    7.8019 O.2     1  UNL1       -0.2747
      3 N          12.1786   41.3463    7.4115 N.am    1  UNL1       -0.2641
      4 H          11.3957   41.9269    7.2731 H       1  UNL1        0.1567
      5 C          16.8218   42.2576    8.4926 C.ar    1  UNL1        0.1566
      6 C          17.9102   43.0266    8.0289 C.ar    1  UNL1        0.0385
      7 C          17.7728   43.8624    6.9046 C.ar    1  UNL1        0.0037
      8 C          16.5490   43.9439    6.2241 C.ar    1  UNL1        0.0083
      9 C          15.4888   43.1765    6.6972 C.ar    1  UNL1        0.0527
     10 C          13.4680   41.9579    7.2884 C.ar    1  UNL1        0.1656
     11 C          15.6084   42.3480    7.8035 C.ar    1  UNL1        0.1230
     12 S          13.9293   43.0693    6.0903 S.2     1  UNL1       -0.0513
     13 N          14.4832   41.6636    8.1355 N.ar    1  UNL1       -0.2209
     14 O          16.9313   41.4142    9.6054 O.3     1  UNL1       -0.4739
     15 C          17.2450   39.3474   10.8144 C.3     1  UNL1        0.0512
     16 C          17.5699   40.1425    9.5631 C.3     1  UNL1        0.2056
     17 C          10.5177   39.5277    7.9632 C.3     1  UNL1        0.1100
     18 C           9.9960   40.1027    9.2755 C.3     1  UNL1        0.1202
     19 C           7.9000   40.9247    8.3269 C.ar    1  UNL1        0.1823
     20 C           7.2595   43.1558    8.5354 C.ar    1  UNL1        0.1673
     21 C           8.3835   43.4499    9.2279 C.ar    1  UNL1        0.1124
     22 C           8.3137   44.7992    9.5283 C.ar    1  UNL1        0.1280
     23 C           5.2359   44.3762    7.7273 C.3     1  UNL1        0.1554
     24 C           9.3155   42.4567    9.4912 C.ar    1  UNL1        0.2665
     25 O          10.3690   42.7154   10.1351 O.2     1  UNL1       -0.2668
     26 N           9.0500   41.1886    9.0342 N.ar    1  UNL1       -0.2776
     27 N           6.9898   41.9126    8.0722 N.ar    1  UNL1       -0.2064
     28 N           7.1464   45.2620    9.0021 N.ar    1  UNL1       -0.1662
     29 N           6.5159   44.2580    8.4029 N.ar    1  UNL1       -0.2318
@<TRIPOS>BOND
     1    15    16    1
     2    16    14    1
     3     5    14    1
     4     6     7   ar
     5     8     9   ar
     6     9    12   ar
     7    10    12   ar
     8    10     3    1
     9    17     1    1
    10    17    18    1
    11    18    26    1
    12    20    27   ar
    13    21    22   ar
    14    21    24   ar
    15    23    29    1
    16    24    26   ar
    17    11    13   ar
    18    11     5   ar
    19     3     1   am
    20    26    19   ar
    21    29    28   ar
    22    29    20   ar
    23     5     6   ar
    24     7     8   ar
    25    10    13   ar
    26     1     2    2
    27    19    27   ar
    28    20    21   ar
    29    22    28   ar
    30    24    25    2
    31    11     9   ar
    32     3     4    1
@<TRIPOS>MOLECULE
MolPort-016-719-737 19716250 MCULE-2089122661 PubChem-46976687 ZINC000019716250
 29 32 0 0 0
SMALL
GASTEIGER

@<TRIPOS>ATOM
      1 C          11.8118   40.4259    9.7795 C.2     1  UNL1        0.2295
      2 O          11.0709   39.5610    9.2429 O.2     1  UNL1       -0.2747
      3 N          11.3975   41.7921    9.8944 N.am    1  UNL1       -0.2641
      4 H          11.9872   42.3947   10.4028 H       1  UNL1        0.1567
      5 C           7.7901   42.4079    6.7060 C.ar    1  UNL1        0.1566
      6 C           6.6249   43.1832    6.5266 C.ar    1  UNL1        0.0385
      7 C           6.2450   44.1424    7.4841 C.ar    1  UNL1        0.0037
      8 C           7.0197   44.3433    8.6360 C.ar    1  UNL1        0.0083
      9 C           8.1644   43.5677    8.7941 C.ar    1  UNL1        0.0527
     10 C          10.2077   42.3660    9.3407 C.ar    1  UNL1        0.1656
     11 C           8.5519   42.6183    7.8597 C.ar    1  UNL1        0.1230
     12 S           9.2675   43.5853   10.0568 S.2     1  UNL1       -0.0513
     13 N           9.6908   41.9430    8.1623 N.ar    1  UNL1       -0.2209
     14 O           8.1894   41.4434    5.7723 O.3     1  UNL1       -0.4739
     15 C           6.5431   39.7466    6.2645 C.3     1  UNL1        0.0512
     16 C           8.0002   40.0452    5.9625 C.3     1  UNL1        0.2056
     17 C          13.1563   40.0236   10.2810 C.3     1  UNL1        0.1100
     18 C          14.0668   39.6331    9.1219 C.3     1  UNL1        0.1202
     19 C          13.9232   41.5478    7.6112 C.ar    1  UNL1        0.1823
     20 C          15.7203   43.0009    7.3104 C.ar    1  UNL1        0.1673
     21 C          16.4806   42.2960    8.1790 C.ar    1  UNL1        0.1124
     22 C          17.7049   42.9391    8.2354 C.ar    1  UNL1        0.1280
     23 C          15.9786   45.0367    5.8868 C.3     1  UNL1        0.1554
     24 C          15.9608   41.1693    8.7993 C.ar    1  UNL1        0.2665
     25 O          16.6575   40.5009    9.6111 O.2     1  UNL1       -0.2668
     26 N          14.6671   40.8125    8.5048 N.ar    1  UNL1       -0.2776
     27 N          14.4474   42.6555    7.0049 N.ar    1  UNL1       -0.2064
     28 N          17.6297   44.0078    7.3952 N.ar    1  UNL1       -0.1662
     29 N          16.4231   44.0356    6.8403 N.ar    1  UNL1       -0.2318
@<TRIPOS>BOND
     1    15    16    1
     2    16    14    1
     3     5    14    1
     4     6     7   ar
     5     8     9   ar
     6     9    12   ar
     7    10    12   ar
     8    10     3    1
     9    17     1    1
    10    17    18    1
    11    18    26    1
    12    20    27   ar
    13    21    22   ar
    14    21    24   ar
    15    23    29    1
    16    24    26   ar
    17    11    13   ar
    18    11     5   ar
    19     3     1   am
    20    26    19   ar
    21    29    28   ar
    22    29    20   ar
    23     5     6   ar
    24     7     8   ar
    25    10    13   ar
    26     1     2    2
    27    19    27   ar
    28    20    21   ar
    29    22    28   ar
    30    24    25    2
    31    11     9   ar
    32     3     4    1
