@<TRIPOS>MOLECULE
MolPort-002-609-612 2406069 LN00636618 PubChem-1617097 ZINC000002406069 ZINC02406069
 31 34 0 0 0
SMALL
GASTEIGER

@<TRIPOS>ATOM
      1 C           3.9172   41.7323   10.5825 C.ar    1  UNL1        0.1568
      2 C           3.2154   40.6056   10.9830 C.ar    1  UNL1        0.0689
      3 C           3.0794   39.3168   10.4786 C.ar    1  UNL1        0.0074
      4 C           2.2066   38.4523   11.1614 C.ar    1  UNL1        0.0176
      5 C           2.0340   37.1401   10.7172 C.ar    1  UNL1        0.0015
      6 C           1.1646   36.2814   11.3942 C.ar    1  UNL1       -0.0002
      7 C           0.4625   36.7294   12.5171 C.ar    1  UNL1       -0.0028
      8 C           0.6191   38.0404   12.9784 C.ar    1  UNL1       -0.0042
      9 C          -0.1499   38.4790   14.1778 C.3     1  UNL1        0.0326
     10 C           1.4906   38.9171   12.3098 C.ar    1  UNL1        0.0789
     11 C           2.5069   41.0184   12.0722 C.ar    1  UNL1        0.1620
     12 N           2.7472   42.3162   12.3117 N.ar    1  UNL1       -0.2329
     13 N           3.6042   42.7668   11.4014 N.ar    1  UNL1       -0.1527
     14 N           1.6503   40.2070   12.7411 N.ar    1  UNL1       -0.2271
     15 C           6.1609   42.2069    9.4633 C.2     1  UNL1        0.2316
     16 N           4.7688   41.8762    9.4393 N.am    1  UNL1       -0.2676
     17 O           6.6946   42.6921   10.4952 O.2     1  UNL1       -0.2744
     18 H           4.3583   41.7345    8.5558 H       1  UNL1        0.1563
     19 C           6.9677   42.0672    8.2179 C.3     1  UNL1        0.1117
     20 C           8.3975   41.8041    8.5479 C.ar    1  UNL1       -0.0129
     21 C           8.8687   40.4890    8.6242 C.ar    1  UNL1       -0.0007
     22 C          10.2048   40.2413    8.9525 C.ar    1  UNL1        0.0366
     23 C          11.0780   41.3038    9.2104 C.ar    1  UNL1        0.1387
     24 C          10.5996   42.6227    9.1380 C.ar    1  UNL1        0.0366
     25 C           9.2638   42.8707    8.8098 C.ar    1  UNL1       -0.0007
     26 C          12.7796   40.3404   10.7249 C.3     1  UNL1        0.2525
     27 O          12.4079   41.0229    9.5352 O.3     1  UNL1       -0.4714
     28 C           2.1764   43.1222   13.3795 C.3     1  UNL1        0.1292
     29 C           0.6697   43.2215   13.2091 C.3     1  UNL1        0.0264
     30 C          -1.4620   41.9341   13.0951 C.3     1  UNL1        0.0001
     31 C           0.0511   41.8365   13.1488 C.3     1  UNL1        0.0021
@<TRIPOS>BOND
     1    30    31    1
     2    31    29    1
     3    29    28    1
     4    28    12    1
     5     1    16    1
     6     1     2   ar
     7    19    15    1
     8    19    20    1
     9    21    22   ar
    10    23    27    1
    11    23    24   ar
    12    26    27    1
    13    25    20   ar
    14     3     4   ar
    15     5     6   ar
    16     7     8   ar
    17     9     8    1
    18    10    14   ar
    19    10     4   ar
    20    11    12   ar
    21    11     2   ar
    22    12    13   ar
    23    16    15   am
    24     1    13   ar
    25    15    17    2
    26    20    21   ar
    27    22    23   ar
    28    24    25   ar
    29     2     3   ar
    30     4     5   ar
    31     6     7   ar
    32     8    10   ar
    33    11    14   ar
    34    16    18    1
@<TRIPOS>MOLECULE
MolPort-002-609-612 2406069 LN00636618 PubChem-1617097 ZINC000002406069 ZINC02406069
 31 34 0 0 0
SMALL
GASTEIGER

@<TRIPOS>ATOM
      1 C           8.9663   41.8668    9.9695 C.ar    1  UNL1        0.1568
      2 C           7.9915   42.5979    9.3080 C.ar    1  UNL1        0.0689
      3 C           8.0154   43.5774    8.3211 C.ar    1  UNL1        0.0074
      4 C           6.7810   44.1311    7.9403 C.ar    1  UNL1        0.0176
      5 C           6.7312   45.1089    6.9452 C.ar    1  UNL1        0.0015
      6 C           5.5047   45.6612    6.5684 C.ar    1  UNL1       -0.0002
      7 C           4.3222   45.2407    7.1845 C.ar    1  UNL1       -0.0028
      8 C           4.3492   44.2636    8.1848 C.ar    1  UNL1       -0.0042
      9 C           3.0661   43.8451    8.8180 C.3     1  UNL1        0.0326
     10 C           5.5743   43.6966    8.5751 C.ar    1  UNL1        0.0789
     11 C           6.8239   42.2179    9.9005 C.ar    1  UNL1        0.1620
     12 N           7.0705   41.3256   10.8714 N.ar    1  UNL1       -0.2329
     13 N           8.3803   41.1077   10.9282 N.ar    1  UNL1       -0.1527
     14 N           5.6219   42.7451    9.5589 N.ar    1  UNL1       -0.2271
     15 C          11.1561   41.1455    8.8758 C.2     1  UNL1        0.2316
     16 N          10.3862   41.9324    9.7900 N.am    1  UNL1       -0.2676
     17 O          10.6762   40.1069    8.3502 O.2     1  UNL1       -0.2744
     18 H          10.8776   42.5785   10.3472 H       1  UNL1        0.1563
     19 C          12.5793   41.5058    8.6188 C.3     1  UNL1        0.1117
     20 C          13.4885   40.6811    9.4648 C.ar    1  UNL1       -0.0129
     21 C          13.0008   40.0625   10.6210 C.ar    1  UNL1       -0.0007
     22 C          13.8576   39.3049   11.4250 C.ar    1  UNL1        0.0366
     23 C          15.2068   39.1629   11.0824 C.ar    1  UNL1        0.1387
     24 C          15.6938   39.7901    9.9236 C.ar    1  UNL1        0.0366
     25 C          14.8375   40.5477    9.1195 C.ar    1  UNL1       -0.0007
     26 C          16.7692   37.2775   11.4307 C.3     1  UNL1        0.2525
     27 O          16.0370   38.3985   11.9067 O.3     1  UNL1       -0.4714
     28 C           6.0889   40.6893   11.7357 C.3     1  UNL1        0.1292
     29 C           4.9506   41.6525   12.0289 C.3     1  UNL1        0.0264
     30 C           3.8301   39.8703   10.6938 C.3     1  UNL1        0.0001
     31 C           3.6192   41.0304   11.6485 C.3     1  UNL1        0.0021
@<TRIPOS>BOND
     1    30    31    1
     2    31    29    1
     3    29    28    1
     4    28    12    1
     5     1    16    1
     6     1     2   ar
     7    19    15    1
     8    19    20    1
     9    21    22   ar
    10    23    27    1
    11    23    24   ar
    12    26    27    1
    13    25    20   ar
    14     3     4   ar
    15     5     6   ar
    16     7     8   ar
    17     9     8    1
    18    10    14   ar
    19    10     4   ar
    20    11    12   ar
    21    11     2   ar
    22    12    13   ar
    23    16    15   am
    24     1    13   ar
    25    15    17    2
    26    20    21   ar
    27    22    23   ar
    28    24    25   ar
    29     2     3   ar
    30     4     5   ar
    31     6     7   ar
    32     8    10   ar
    33    11    14   ar
    34    16    18    1
@<TRIPOS>MOLECULE
MolPort-002-609-612 2406069 LN00636618 PubChem-1617097 ZINC000002406069 ZINC02406069
 31 34 0 0 0
SMALL
GASTEIGER

@<TRIPOS>ATOM
      1 C           1.6799   43.2218   12.9306 C.ar    1  UNL1        0.1568
      2 C           0.8025   42.6089   13.8121 C.ar    1  UNL1        0.0689
      3 C           0.0665   41.4293   13.7858 C.ar    1  UNL1        0.0074
      4 C          -0.7761   41.1774   14.8821 C.ar    1  UNL1        0.0176
      5 C          -1.5325   40.0049   14.9268 C.ar    1  UNL1        0.0015
      6 C          -2.3720   39.7555   16.0152 C.ar    1  UNL1       -0.0002
      7 C          -2.4611   40.6764   17.0634 C.ar    1  UNL1       -0.0028
      8 C          -1.7134   41.8581   17.0383 C.ar    1  UNL1       -0.0042
      9 C          -1.8392   42.8146   18.1748 C.3     1  UNL1        0.0326
     10 C          -0.8630   42.1241   15.9516 C.ar    1  UNL1        0.0789
     11 C           0.6845   43.4947   14.8417 C.ar    1  UNL1        0.1620
     12 N           1.4278   44.5844   14.5979 N.ar    1  UNL1       -0.2329
     13 N           2.0369   44.4323   13.4265 N.ar    1  UNL1       -0.1527
     14 N          -0.1299   43.2799   15.9048 N.ar    1  UNL1       -0.2271
     15 C           3.0289   41.6950   11.3942 C.2     1  UNL1        0.2316
     16 N           2.1002   42.7548   11.6430 N.am    1  UNL1       -0.2676
     17 O           3.7877   41.2703   12.3048 O.2     1  UNL1       -0.2744
     18 H           1.7144   43.2046   10.8567 H       1  UNL1        0.1563
     19 C           3.1690   41.1540   10.0125 C.3     1  UNL1        0.1117
     20 C           4.5919   41.2089    9.5711 C.ar    1  UNL1       -0.0129
     21 C           4.9446   40.7790    8.2873 C.ar    1  UNL1       -0.0007
     22 C           6.2814   40.8123    7.8798 C.ar    1  UNL1        0.0366
     23 C           7.2750   41.2710    8.7518 C.ar    1  UNL1        0.1387
     24 C           6.9174   41.6966   10.0419 C.ar    1  UNL1        0.0366
     25 C           5.5809   41.6634   10.4497 C.ar    1  UNL1       -0.0007
     26 C           8.9561   41.4233    6.9440 C.3     1  UNL1        0.2525
     27 O           8.6020   41.2924    8.3139 O.3     1  UNL1       -0.4714
     28 C           1.5609   45.7536   15.4527 C.3     1  UNL1        0.1292
     29 C           0.1959   46.3708   15.7079 C.3     1  UNL1        0.0264
     30 C          -1.8856   47.2357   14.6432 C.3     1  UNL1        0.0001
     31 C          -0.4773   46.7286   14.3952 C.3     1  UNL1        0.0021
@<TRIPOS>BOND
     1    30    31    1
     2    31    29    1
     3    29    28    1
     4    28    12    1
     5     1    16    1
     6     1     2   ar
     7    19    15    1
     8    19    20    1
     9    21    22   ar
    10    23    27    1
    11    23    24   ar
    12    26    27    1
    13    25    20   ar
    14     3     4   ar
    15     5     6   ar
    16     7     8   ar
    17     9     8    1
    18    10    14   ar
    19    10     4   ar
    20    11    12   ar
    21    11     2   ar
    22    12    13   ar
    23    16    15   am
    24     1    13   ar
    25    15    17    2
    26    20    21   ar
    27    22    23   ar
    28    24    25   ar
    29     2     3   ar
    30     4     5   ar
    31     6     7   ar
    32     8    10   ar
    33    11    14   ar
    34    16    18    1
@<TRIPOS>MOLECULE
MolPort-002-609-612 2406069 LN00636618 PubChem-1617097 ZINC000002406069 ZINC02406069
 31 34 0 0 0
SMALL
GASTEIGER

@<TRIPOS>ATOM
      1 C           9.0986   40.6709    9.6710 C.ar    1  UNL1        0.1568
      2 C           8.2944   41.4752    8.8780 C.ar    1  UNL1        0.0689
      3 C           8.4355   42.0474    7.6185 C.ar    1  UNL1        0.0074
      4 C           7.3877   42.8692    7.1690 C.ar    1  UNL1        0.0176
      5 C           7.4581   43.4639    5.9080 C.ar    1  UNL1        0.0015
      6 C           6.4178   44.2828    5.4621 C.ar    1  UNL1       -0.0002
      7 C           5.3031   44.5127    6.2738 C.ar    1  UNL1       -0.0028
      8 C           5.2126   43.9282    7.5412 C.ar    1  UNL1       -0.0042
      9 C           4.0081   44.2009    8.3762 C.3     1  UNL1        0.0326
     10 C           6.2495   43.1008    8.0049 C.ar    1  UNL1        0.0789
     11 C           7.2017   41.7288    9.6529 C.ar    1  UNL1        0.1620
     12 N           7.3366   41.1324   10.8469 N.ar    1  UNL1       -0.2329
     13 N           8.4981   40.4870   10.8728 N.ar    1  UNL1       -0.1527
     14 N           6.1832   42.5269    9.2466 N.ar    1  UNL1       -0.2271
     15 C          11.6457   40.7296    9.8149 C.2     1  UNL1        0.2316
     16 N          10.4064   40.1686    9.3708 N.am    1  UNL1       -0.2676
     17 O          11.6999   41.9004   10.2749 O.2     1  UNL1       -0.2744
     18 H          10.4571   39.3632    8.8069 H       1  UNL1        0.1563
     19 C          12.9055   39.9530    9.6383 C.3     1  UNL1        0.1117
     20 C          13.9322   40.7745    8.9357 C.ar    1  UNL1       -0.0129
     21 C          15.2632   40.7511    9.3661 C.ar    1  UNL1       -0.0007
     22 C          16.2226   41.5360    8.7197 C.ar    1  UNL1        0.0366
     23 C          15.8592   42.3520    7.6427 C.ar    1  UNL1        0.1387
     24 C          14.5207   42.3768    7.2171 C.ar    1  UNL1        0.0366
     25 C          13.5612   41.5921    7.8631 C.ar    1  UNL1       -0.0007
     26 C          16.5676   43.9572    5.8994 C.3     1  UNL1        0.2525
     27 O          16.8421   43.1241    7.0175 O.3     1  UNL1       -0.4714
     28 C           6.3884   41.1715   11.9490 C.3     1  UNL1        0.1292
     29 C           5.2384   42.1068   11.6142 C.3     1  UNL1        0.0264
     30 C           4.1681   39.8562   11.6708 C.3     1  UNL1        0.0001
     31 C           3.9211   41.3525   11.6276 C.3     1  UNL1        0.0021
@<TRIPOS>BOND
     1    30    31    1
     2    31    29    1
     3    29    28    1
     4    28    12    1
     5     1    16    1
     6     1     2   ar
     7    19    15    1
     8    19    20    1
     9    21    22   ar
    10    23    27    1
    11    23    24   ar
    12    26    27    1
    13    25    20   ar
    14     3     4   ar
    15     5     6   ar
    16     7     8   ar
    17     9     8    1
    18    10    14   ar
    19    10     4   ar
    20    11    12   ar
    21    11     2   ar
    22    12    13   ar
    23    16    15   am
    24     1    13   ar
    25    15    17    2
    26    20    21   ar
    27    22    23   ar
    28    24    25   ar
    29     2     3   ar
    30     4     5   ar
    31     6     7   ar
    32     8    10   ar
    33    11    14   ar
    34    16    18    1
@<TRIPOS>MOLECULE
MolPort-002-609-612 2406069 LN00636618 PubChem-1617097 ZINC000002406069 ZINC02406069
 31 34 0 0 0
SMALL
GASTEIGER

@<TRIPOS>ATOM
      1 C          13.8600   39.7770    9.2291 C.ar    1  UNL1        0.1568
      2 C          14.3383   40.8790    8.5369 C.ar    1  UNL1        0.0689
      3 C          13.7866   41.7583    7.6116 C.ar    1  UNL1        0.0074
      4 C          14.6361   42.7449    7.0822 C.ar    1  UNL1        0.0176
      5 C          14.1434   43.6690    6.1591 C.ar    1  UNL1        0.0015
      6 C          14.9883   44.6482    5.6310 C.ar    1  UNL1       -0.0002
      7 C          16.3294   44.7082    6.0211 C.ar    1  UNL1       -0.0028
      8 C          16.8444   43.7914    6.9432 C.ar    1  UNL1       -0.0042
      9 C          18.2806   43.8886    7.3307 C.3     1  UNL1        0.0326
     10 C          16.0080   42.8008    7.4853 C.ar    1  UNL1        0.0789
     11 C          15.6537   40.9535    8.8878 C.ar    1  UNL1        0.1620
     12 N          15.9629   39.9530    9.7262 N.ar    1  UNL1       -0.2329
     13 N          14.8739   39.2210    9.9373 N.ar    1  UNL1       -0.1527
     14 N          16.4962   41.8887    8.3827 N.ar    1  UNL1       -0.2271
     15 C          11.3200   39.8828    9.4501 C.2     1  UNL1        0.2316
     16 N          12.5482   39.2041    9.1694 N.am    1  UNL1       -0.2676
     17 O          11.3119   40.9813   10.0653 O.2     1  UNL1       -0.2744
     18 H          12.4860   38.2560    8.9116 H       1  UNL1        0.1563
     19 C          10.0267   39.2317    9.0966 C.3     1  UNL1        0.1117
     20 C           9.7827   39.3165    7.6284 C.ar    1  UNL1       -0.0129
     21 C          10.8493   39.5465    6.7527 C.ar    1  UNL1       -0.0007
     22 C          10.6181   39.6453    5.3775 C.ar    1  UNL1        0.0366
     23 C           9.3210   39.5190    4.8680 C.ar    1  UNL1        0.1387
     24 C           8.2520   39.2935    5.7511 C.ar    1  UNL1        0.0366
     25 C           8.4828   39.1947    7.1261 C.ar    1  UNL1       -0.0007
     26 C           9.4330   38.5674    2.5878 C.3     1  UNL1        0.2525
     27 O           9.1233   39.6221    3.4884 O.3     1  UNL1       -0.4714
     28 C          17.2647   39.6871   10.3180 C.3     1  UNL1        0.1292
     29 C          17.2864   38.2943   10.9254 C.3     1  UNL1        0.0264
     30 C          19.5898   38.6110   10.0265 C.3     1  UNL1        0.0001
     31 C          18.6661   37.6770   10.7856 C.3     1  UNL1        0.0021
@<TRIPOS>BOND
     1    30    31    1
     2    31    29    1
     3    29    28    1
     4    28    12    1
     5     1    16    1
     6     1     2   ar
     7    19    15    1
     8    19    20    1
     9    21    22   ar
    10    23    27    1
    11    23    24   ar
    12    26    27    1
    13    25    20   ar
    14     3     4   ar
    15     5     6   ar
    16     7     8   ar
    17     9     8    1
    18    10    14   ar
    19    10     4   ar
    20    11    12   ar
    21    11     2   ar
    22    12    13   ar
    23    16    15   am
    24     1    13   ar
    25    15    17    2
    26    20    21   ar
    27    22    23   ar
    28    24    25   ar
    29     2     3   ar
    30     4     5   ar
    31     6     7   ar
    32     8    10   ar
    33    11    14   ar
    34    16    18    1
@<TRIPOS>MOLECULE
MolPort-002-609-612 2406069 LN00636618 PubChem-1617097 ZINC000002406069 ZINC02406069
 31 34 0 0 0
SMALL
GASTEIGER

@<TRIPOS>ATOM
      1 C           6.4678   41.5215   10.6430 C.ar    1  UNL1        0.1568
      2 C           5.8568   42.4170    9.7786 C.ar    1  UNL1        0.0689
      3 C           6.2626   43.0880    8.6302 C.ar    1  UNL1        0.0074
      4 C           5.3430   43.9804    8.0529 C.ar    1  UNL1        0.0176
      5 C           5.6804   44.6764    6.8907 C.ar    1  UNL1        0.0015
      6 C           4.7674   45.5653    6.3182 C.ar    1  UNL1       -0.0002
      7 C           3.5138   45.7643    6.9042 C.ar    1  UNL1       -0.0028
      8 C           3.1557   45.0787    8.0694 C.ar    1  UNL1       -0.0042
      9 C           1.8102   45.3215    8.6636 C.3     1  UNL1        0.0326
     10 C           4.0616   44.1799    8.6578 C.ar    1  UNL1        0.0789
     11 C           4.6327   42.6420   10.3352 C.ar    1  UNL1        0.1620
     12 N           4.5100   41.9429   11.4735 N.ar    1  UNL1       -0.2329
     13 N           5.6307   41.2579   11.6766 N.ar    1  UNL1       -0.1527
     14 N           3.7325   43.5061    9.8038 N.ar    1  UNL1       -0.2271
     15 C           8.4697   40.5630    9.3838 C.2     1  UNL1        0.2316
     16 N           7.8009   41.0015   10.5705 N.am    1  UNL1       -0.2676
     17 O           7.8270   40.3229    8.3281 O.2     1  UNL1       -0.2744
     18 H           8.3031   40.9401   11.4151 H       1  UNL1        0.1563
     19 C           9.9347   40.2921    9.4272 C.3     1  UNL1        0.1117
     20 C          10.4450   39.9571    8.0671 C.ar    1  UNL1       -0.0129
     21 C          11.4687   40.7202    7.4950 C.ar    1  UNL1       -0.0007
     22 C          11.9343   40.4184    6.2119 C.ar    1  UNL1        0.0366
     23 C          11.3790   39.3560    5.4902 C.ar    1  UNL1        0.1387
     24 C          10.3476   38.5956    6.0660 C.ar    1  UNL1        0.0366
     25 C           9.8818   38.8971    7.3489 C.ar    1  UNL1       -0.0007
     26 C          11.0933   38.4152    3.2207 C.3     1  UNL1        0.2525
     27 O          11.8671   39.0796    4.2102 O.3     1  UNL1       -0.4714
     28 C           3.3567   41.9218   12.3594 C.3     1  UNL1        0.1292
     29 C           2.0755   42.0336   11.5498 C.3     1  UNL1        0.0264
     30 C           1.0643   42.0803   13.8278 C.3     1  UNL1        0.0001
     31 C           0.9557   42.5974   12.4056 C.3     1  UNL1        0.0021
@<TRIPOS>BOND
     1    30    31    1
     2    31    29    1
     3    29    28    1
     4    28    12    1
     5     1    16    1
     6     1     2   ar
     7    19    15    1
     8    19    20    1
     9    21    22   ar
    10    23    27    1
    11    23    24   ar
    12    26    27    1
    13    25    20   ar
    14     3     4   ar
    15     5     6   ar
    16     7     8   ar
    17     9     8    1
    18    10    14   ar
    19    10     4   ar
    20    11    12   ar
    21    11     2   ar
    22    12    13   ar
    23    16    15   am
    24     1    13   ar
    25    15    17    2
    26    20    21   ar
    27    22    23   ar
    28    24    25   ar
    29     2     3   ar
    30     4     5   ar
    31     6     7   ar
    32     8    10   ar
    33    11    14   ar
    34    16    18    1
@<TRIPOS>MOLECULE
MolPort-002-609-612 2406069 LN00636618 PubChem-1617097 ZINC000002406069 ZINC02406069
 31 34 0 0 0
SMALL
GASTEIGER

@<TRIPOS>ATOM
      1 C          13.4344   39.4256    8.5750 C.ar    1  UNL1        0.1568
      2 C          13.9815   40.6057    8.0949 C.ar    1  UNL1        0.0689
      3 C          13.6131   41.5161    7.1104 C.ar    1  UNL1        0.0074
      4 C          14.4860   42.5926    6.8767 C.ar    1  UNL1        0.0176
      5 C          14.1703   43.5513    5.9123 C.ar    1  UNL1        0.0015
      6 C          15.0390   44.6199    5.6781 C.ar    1  UNL1       -0.0002
      7 C          16.2277   44.7355    6.4049 C.ar    1  UNL1       -0.0028
      8 C          16.5644   43.7856    7.3746 C.ar    1  UNL1       -0.0042
      9 C          17.8424   43.9443    8.1256 C.3     1  UNL1        0.0326
     10 C          15.7013   42.7049    7.6238 C.ar    1  UNL1        0.0789
     11 C          15.1540   40.7369    8.7780 C.ar    1  UNL1        0.1620
     12 N          15.3206   39.6970    9.6089 N.ar    1  UNL1       -0.2329
     13 N          14.2770   38.8830    9.4885 N.ar    1  UNL1       -0.1527
     14 N          16.0182   41.7599    8.5629 N.ar    1  UNL1       -0.2271
     15 C          10.9930   38.7402    8.8604 C.2     1  UNL1        0.2316
     16 N          12.2319   38.7763    8.1450 N.am    1  UNL1       -0.2676
     17 O          10.9413   39.0352   10.0833 O.2     1  UNL1       -0.2744
     18 H          12.2604   38.3122    7.2772 H       1  UNL1        0.1563
     19 C           9.7647   38.2511    8.1724 C.3     1  UNL1        0.1117
     20 C           9.0344   39.3849    7.5371 C.ar    1  UNL1       -0.0129
     21 C           9.4935   40.6959    7.7045 C.ar    1  UNL1       -0.0007
     22 C           8.7981   41.7612    7.1249 C.ar    1  UNL1        0.0366
     23 C           7.6384   41.5255    6.3782 C.ar    1  UNL1        0.1387
     24 C           7.1778   40.2081    6.2170 C.ar    1  UNL1        0.0366
     25 C           7.8728   39.1428    6.7964 C.ar    1  UNL1       -0.0007
     26 C           6.5121   43.7184    6.5783 C.3     1  UNL1        0.2525
     27 O           6.9666   42.6119    5.8112 O.3     1  UNL1       -0.4714
     28 C          16.4467   39.4703   10.5012 C.3     1  UNL1        0.1292
     29 C          17.0339   38.0898   10.2589 C.3     1  UNL1        0.0264
     30 C          19.4048   38.6860    9.7717 C.3     1  UNL1        0.0001
     31 C          18.4643   38.0268   10.7630 C.3     1  UNL1        0.0021
@<TRIPOS>BOND
     1    30    31    1
     2    31    29    1
     3    29    28    1
     4    28    12    1
     5     1    16    1
     6     1     2   ar
     7    19    15    1
     8    19    20    1
     9    21    22   ar
    10    23    27    1
    11    23    24   ar
    12    26    27    1
    13    25    20   ar
    14     3     4   ar
    15     5     6   ar
    16     7     8   ar
    17     9     8    1
    18    10    14   ar
    19    10     4   ar
    20    11    12   ar
    21    11     2   ar
    22    12    13   ar
    23    16    15   am
    24     1    13   ar
    25    15    17    2
    26    20    21   ar
    27    22    23   ar
    28    24    25   ar
    29     2     3   ar
    30     4     5   ar
    31     6     7   ar
    32     8    10   ar
    33    11    14   ar
    34    16    18    1
@<TRIPOS>MOLECULE
MolPort-002-609-612 2406069 LN00636618 PubChem-1617097 ZINC000002406069 ZINC02406069
 31 34 0 0 0
SMALL
GASTEIGER

@<TRIPOS>ATOM
      1 C           3.9022   42.6104   11.0634 C.ar    1  UNL1        0.1568
      2 C           3.2708   41.4225   11.3990 C.ar    1  UNL1        0.0689
      3 C           3.3453   40.1167   10.9266 C.ar    1  UNL1        0.0074
      4 C           2.4770   39.1765   11.5075 C.ar    1  UNL1        0.0176
      5 C           2.5092   37.8447   11.0901 C.ar    1  UNL1        0.0015
      6 C           1.6445   36.9106   11.6657 C.ar    1  UNL1       -0.0002
      7 C           0.7427   37.3023   12.6597 C.ar    1  UNL1       -0.0028
      8 C           0.6925   38.6316   13.0917 C.ar    1  UNL1       -0.0042
      9 C          -0.2852   39.0082   14.1521 C.3     1  UNL1        0.0326
     10 C           1.5561   39.5839   12.5242 C.ar    1  UNL1        0.0789
     11 C           2.3714   41.7778   12.3600 C.ar    1  UNL1        0.1620
     12 N           2.4373   43.0986   12.5851 N.ar    1  UNL1       -0.2329
     13 N           3.3666   43.6211   11.7916 N.ar    1  UNL1       -0.1527
     14 N           1.5156   40.8920   12.9277 N.ar    1  UNL1       -0.2271
     15 C           6.1169   42.0971    9.9043 C.2     1  UNL1        0.2316
     16 N           4.8921   42.8228   10.0497 N.am    1  UNL1       -0.2676
     17 O           6.5693   41.3931   10.8451 O.2     1  UNL1       -0.2744
     18 H           4.7133   43.5336    9.3924 H       1  UNL1        0.1563
     19 C           6.9180   42.2558    8.6575 C.3     1  UNL1        0.1117
     20 C           8.1162   41.3693    8.6894 C.ar    1  UNL1       -0.0129
     21 C           8.1741   40.2392    7.8666 C.ar    1  UNL1       -0.0007
     22 C           9.2891   39.3972    7.9101 C.ar    1  UNL1        0.0366
     23 C          10.3514   39.6751    8.7775 C.ar    1  UNL1        0.1387
     24 C          10.2869   40.8078    9.6059 C.ar    1  UNL1        0.0366
     25 C           9.1723   41.6500    9.5627 C.ar    1  UNL1       -0.0007
     26 C          11.4272   37.5513    9.4481 C.3     1  UNL1        0.2525
     27 O          11.4519   38.8140    8.7967 O.3     1  UNL1       -0.4714
     28 C           1.6355   43.8592   13.5307 C.3     1  UNL1        0.1292
     29 C           0.2695   43.2136   13.6934 C.3     1  UNL1        0.0264
     30 C          -1.3617   42.2887   15.3359 C.3     1  UNL1        0.0001
     31 C          -0.0898   43.0976   15.1637 C.3     1  UNL1        0.0021
@<TRIPOS>BOND
     1    30    31    1
     2    31    29    1
     3    29    28    1
     4    28    12    1
     5     1    16    1
     6     1     2   ar
     7    19    15    1
     8    19    20    1
     9    21    22   ar
    10    23    27    1
    11    23    24   ar
    12    26    27    1
    13    25    20   ar
    14     3     4   ar
    15     5     6   ar
    16     7     8   ar
    17     9     8    1
    18    10    14   ar
    19    10     4   ar
    20    11    12   ar
    21    11     2   ar
    22    12    13   ar
    23    16    15   am
    24     1    13   ar
    25    15    17    2
    26    20    21   ar
    27    22    23   ar
    28    24    25   ar
    29     2     3   ar
    30     4     5   ar
    31     6     7   ar
    32     8    10   ar
    33    11    14   ar
    34    16    18    1
@<TRIPOS>MOLECULE
MolPort-002-609-612 2406069 LN00636618 PubChem-1617097 ZINC000002406069 ZINC02406069
 31 34 0 0 0
SMALL
GASTEIGER

@<TRIPOS>ATOM
      1 C          11.5334   40.3748    7.2365 C.ar    1  UNL1        0.1568
      2 C          12.6003   41.2534    7.1250 C.ar    1  UNL1        0.0689
      3 C          12.8678   42.3583    6.3242 C.ar    1  UNL1        0.0074
      4 C          14.1242   42.9695    6.4776 C.ar    1  UNL1        0.0176
      5 C          14.4528   44.0918    5.7152 C.ar    1  UNL1        0.0015
      6 C          15.7024   44.6978    5.8657 C.ar    1  UNL1       -0.0002
      7 C          16.6302   44.1852    6.7772 C.ar    1  UNL1       -0.0028
      8 C          16.3225   43.0608    7.5500 C.ar    1  UNL1       -0.0042
      9 C          17.3408   42.5445    8.5085 C.3     1  UNL1        0.0326
     10 C          15.0695   42.4396    7.4121 C.ar    1  UNL1        0.0789
     11 C          13.5303   40.7677    7.9955 C.ar    1  UNL1        0.1620
     12 N          13.0689   39.6561    8.5879 N.ar    1  UNL1       -0.2329
     13 N          11.8491   39.4011    8.1258 N.ar    1  UNL1       -0.1527
     14 N          14.7533   41.3324    8.1534 N.ar    1  UNL1       -0.2271
     15 C           9.1318   39.6304    6.8011 C.2     1  UNL1        0.2316
     16 N          10.3114   40.3779    6.4886 N.am    1  UNL1       -0.2676
     17 O           9.1696   38.6677    7.6117 O.2     1  UNL1       -0.2744
     18 H          10.2804   40.9466    5.6857 H       1  UNL1        0.1563
     19 C           7.8619   39.9330    6.0819 C.3     1  UNL1        0.1117
     20 C           7.1667   41.0911    6.7128 C.ar    1  UNL1       -0.0129
     21 C           7.2387   42.3577    6.1231 C.ar    1  UNL1       -0.0007
     22 C           6.6030   43.4478    6.7247 C.ar    1  UNL1        0.0366
     23 C           5.8949   43.2817    7.9201 C.ar    1  UNL1        0.1387
     24 C           5.8296   42.0093    8.5118 C.ar    1  UNL1        0.0366
     25 C           6.4651   40.9192    7.9106 C.ar    1  UNL1       -0.0007
     26 C           3.9251   44.7495    8.2087 C.3     1  UNL1        0.2525
     27 O           5.2700   44.3913    8.4958 O.3     1  UNL1       -0.4714
     28 C          13.7662   38.8433    9.5721 C.3     1  UNL1        0.1292
     29 C          13.6167   39.4564   10.9545 C.3     1  UNL1        0.0264
     30 C          15.9199   38.6763   11.5027 C.3     1  UNL1        0.0001
     31 C          14.4739   38.7098   11.9605 C.3     1  UNL1        0.0021
@<TRIPOS>BOND
     1    30    31    1
     2    31    29    1
     3    29    28    1
     4    28    12    1
     5     1    16    1
     6     1     2   ar
     7    19    15    1
     8    19    20    1
     9    21    22   ar
    10    23    27    1
    11    23    24   ar
    12    26    27    1
    13    25    20   ar
    14     3     4   ar
    15     5     6   ar
    16     7     8   ar
    17     9     8    1
    18    10    14   ar
    19    10     4   ar
    20    11    12   ar
    21    11     2   ar
    22    12    13   ar
    23    16    15   am
    24     1    13   ar
    25    15    17    2
    26    20    21   ar
    27    22    23   ar
    28    24    25   ar
    29     2     3   ar
    30     4     5   ar
    31     6     7   ar
    32     8    10   ar
    33    11    14   ar
    34    16    18    1
@<TRIPOS>MOLECULE
MolPort-002-609-612 2406069 LN00636618 PubChem-1617097 ZINC000002406069 ZINC02406069
 31 34 0 0 0
SMALL
GASTEIGER

@<TRIPOS>ATOM
      1 C          13.3800   40.1487    9.0837 C.ar    1  UNL1        0.1568
      2 C          14.0076   41.1890    8.4157 C.ar    1  UNL1        0.0689
      3 C          13.5846   42.1569    7.5113 C.ar    1  UNL1        0.0074
      4 C          14.5636   43.0277    7.0028 C.ar    1  UNL1        0.0176
      5 C          14.2052   44.0319    6.1016 C.ar    1  UNL1        0.0015
      6 C          15.1786   44.8959    5.5941 C.ar    1  UNL1       -0.0002
      7 C          16.5146   44.7604    5.9831 C.ar    1  UNL1       -0.0028
      8 C          16.8960   43.7604    6.8835 C.ar    1  UNL1       -0.0042
      9 C          18.3312   43.6485    7.2706 C.3     1  UNL1        0.0326
     10 C          15.9294   42.8835    7.4046 C.ar    1  UNL1        0.0789
     11 C          15.3201   41.0722    8.7659 C.ar    1  UNL1        0.1620
     12 N          15.4862   40.0199    9.5810 N.ar    1  UNL1       -0.2329
     13 N          14.3059   39.4416    9.7775 N.ar    1  UNL1       -0.1527
     14 N          16.2849   41.8925    8.2805 N.ar    1  UNL1       -0.2271
     15 C          10.8938   40.5073    9.5330 C.2     1  UNL1        0.2316
     16 N          12.0014   39.7650    9.0135 N.am    1  UNL1       -0.2676
     17 O          11.0684   41.4355   10.3656 O.2     1  UNL1       -0.2744
     18 H          11.7973   38.9118    8.5666 H       1  UNL1        0.1563
     19 C           9.5068   40.1106    9.1585 C.3     1  UNL1        0.1117
     20 C           9.3794   39.9885    7.6782 C.ar    1  UNL1       -0.0129
     21 C           9.0439   38.7582    7.1027 C.ar    1  UNL1       -0.0007
     22 C           8.9432   38.6387    5.7135 C.ar    1  UNL1        0.0366
     23 C           9.1803   39.7448    4.8898 C.ar    1  UNL1        0.1387
     24 C           9.5222   40.9770    5.4714 C.ar    1  UNL1        0.0366
     25 C           9.6230   41.0968    6.8603 C.ar    1  UNL1       -0.0007
     26 C           9.4675   38.4069    2.8294 C.3     1  UNL1        0.2525
     27 O           9.0709   39.5926    3.5050 O.3     1  UNL1       -0.4714
     28 C          16.7377   39.5626   10.1644 C.3     1  UNL1        0.1292
     29 C          16.5671   38.1639   10.7333 C.3     1  UNL1        0.0264
     30 C          14.6119   37.1502   11.9012 C.3     1  UNL1        0.0001
     31 C          15.7032   38.2012   11.9809 C.3     1  UNL1        0.0021
@<TRIPOS>BOND
     1    30    31    1
     2    31    29    1
     3    29    28    1
     4    28    12    1
     5     1    16    1
     6     1     2   ar
     7    19    15    1
     8    19    20    1
     9    21    22   ar
    10    23    27    1
    11    23    24   ar
    12    26    27    1
    13    25    20   ar
    14     3     4   ar
    15     5     6   ar
    16     7     8   ar
    17     9     8    1
    18    10    14   ar
    19    10     4   ar
    20    11    12   ar
    21    11     2   ar
    22    12    13   ar
    23    16    15   am
    24     1    13   ar
    25    15    17    2
    26    20    21   ar
    27    22    23   ar
    28    24    25   ar
    29     2     3   ar
    30     4     5   ar
    31     6     7   ar
    32     8    10   ar
    33    11    14   ar
    34    16    18    1
