@<TRIPOS>MOLECULE
MolPort-002-455-717 2685898 CSSS03437110693 ChemDiv-D039-0045 MCULE-8838929789 PubChem-2134006 ZINC000002685898 ZINC02685898
 29 30 0 0 0
SMALL
GASTEIGER

@<TRIPOS>ATOM
      1 C           8.8449   42.2738    9.5523 C.2     1  UNL1        0.3092
      2 O           8.8193   42.5285    8.3174 O.2     1  UNL1       -0.2521
      3 N          10.0442   41.8054   10.1759 N.am    1  UNL1       -0.2551
      4 N           7.6828   42.4903   10.3576 N.am    1  UNL1       -0.2686
      5 H          10.0206   41.6512   11.1480 H       1  UNL1        0.1578
      6 H           7.7933   42.4568   11.3353 H       1  UNL1        0.1564
      7 C          13.2803   40.7364    9.0306 C.ar    1  UNL1        0.0857
      8 C          12.8273   41.5713    8.0160 C.ar    1  UNL1        0.0408
      9 C          13.5592   41.9077    6.7625 C.3     1  UNL1        0.0500
     10 C          11.2765   41.5437    9.4945 C.ar    1  UNL1        0.1085
     11 C          12.2735   40.7251    9.9788 C.ar    1  UNL1        0.0153
     12 C          12.2496   39.9839   11.2728 C.3     1  UNL1        0.0342
     13 N          11.6040   42.0656    8.2954 N.ar    1  UNL1       -0.3451
     14 H          11.0656   42.6767    7.7422 H       1  UNL1        0.1668
     15 C          14.5657   40.0109    9.0908 C.2     1  UNL1        0.3421
     16 O          14.6204   38.8645    9.6141 O.2     1  UNL1       -0.2449
     17 O          15.7198   40.5966    8.5663 O.3     1  UNL1       -0.4454
     18 C          17.4036   42.2892    8.7766 C.3     1  UNL1        0.0513
     19 C          16.7724   41.0609    9.3983 C.3     1  UNL1        0.2089
     20 C           6.3665   42.7529    9.8461 C.ar    1  UNL1        0.0435
     21 C           5.2979   41.9269   10.2481 C.ar    1  UNL1       -0.0090
     22 C           4.0078   42.1626    9.7628 C.ar    1  UNL1       -0.0031
     23 C           3.7737   43.1944    8.8544 C.ar    1  UNL1       -0.0006
     24 C           4.8309   43.9943    8.4212 C.ar    1  UNL1       -0.0031
     25 C           6.1263   43.7834    8.9057 C.ar    1  UNL1       -0.0090
     26 C           5.5042   40.8204   11.2304 C.3     1  UNL1        0.0276
     27 C           4.1742   40.1866   11.5922 C.3     1  UNL1        0.0051
     28 C           7.2324   44.6081    8.3318 C.3     1  UNL1        0.0276
     29 C           7.7456   45.5911    9.3668 C.3     1  UNL1        0.0051
@<TRIPOS>BOND
     1    18    19    1
     2    19    17    1
     3    15    17    1
     4    15     7    1
     5     8    13   ar
     6     9     8    1
     7    10     3    1
     8     1     4   am
     9    21    22   ar
    10    26    21    1
    11    26    27    1
    12    23    24   ar
    13    25    20   ar
    14    28    25    1
    15    28    29    1
    16    11     7   ar
    17    12    11    1
    18    13    10   ar
    19     3     1   am
    20     4    20    1
    21    15    16    2
    22     7     8   ar
    23    10    11   ar
    24     1     2    2
    25    20    21   ar
    26    22    23   ar
    27    24    25   ar
    28    13    14    1
    29     3     5    1
    30     4     6    1
@<TRIPOS>MOLECULE
MolPort-002-455-717 2685898 CSSS03437110693 ChemDiv-D039-0045 MCULE-8838929789 PubChem-2134006 ZINC000002685898 ZINC02685898
 29 30 0 0 0
SMALL
GASTEIGER

@<TRIPOS>ATOM
      1 C          11.8633   41.9740    6.0252 C.2     1  UNL1        0.3092
      2 O          12.3111   40.8634    6.4211 O.2     1  UNL1       -0.2521
      3 N          12.7229   43.1131    5.9240 N.am    1  UNL1       -0.2551
      4 N          10.4944   42.1003    5.6303 N.am    1  UNL1       -0.2686
      5 H          12.3318   43.9484    5.5799 H       1  UNL1        0.1578
      6 H          10.2304   42.9231    5.1585 H       1  UNL1        0.1564
      7 C          15.9827   42.8023    7.4086 C.ar    1  UNL1        0.0857
      8 C          16.2206   43.4897    6.2242 C.ar    1  UNL1        0.0408
      9 C          17.5457   43.9627    5.7339 C.3     1  UNL1        0.0500
     10 C          14.1088   43.1313    6.2851 C.ar    1  UNL1        0.1085
     11 C          14.6186   42.5758    7.4384 C.ar    1  UNL1        0.0153
     12 C          13.8349   41.8742    8.4957 C.3     1  UNL1        0.0342
     13 N          15.0790   43.6920    5.5354 N.ar    1  UNL1       -0.3451
     14 H          14.9761   44.1508    4.6704 H       1  UNL1        0.1668
     15 C          16.9733   42.3960    8.4264 C.2     1  UNL1        0.3421
     16 O          17.5547   43.2696    9.1264 O.2     1  UNL1       -0.2449
     17 O          17.2640   41.0430    8.6124 O.3     1  UNL1       -0.4454
     18 C          16.1532   39.4042    9.9632 C.3     1  UNL1        0.0513
     19 C          17.2548   40.4414    9.8983 C.3     1  UNL1        0.2089
     20 C           9.4761   41.1161    5.8708 C.ar    1  UNL1        0.0435
     21 C           8.6544   41.2444    7.0084 C.ar    1  UNL1       -0.0090
     22 C           7.6570   40.2982    7.2639 C.ar    1  UNL1       -0.0031
     23 C           7.4881   39.2050    6.4148 C.ar    1  UNL1       -0.0006
     24 C           8.3204   39.0484    5.3068 C.ar    1  UNL1       -0.0031
     25 C           9.3150   39.9915    5.0263 C.ar    1  UNL1       -0.0090
     26 C           8.7937   42.4084    7.9345 C.3     1  UNL1        0.0276
     27 C           7.5270   42.5824    8.7511 C.3     1  UNL1        0.0051
     28 C          10.2372   39.7188    3.8825 C.3     1  UNL1        0.0276
     29 C          10.0682   38.2904    3.4010 C.3     1  UNL1        0.0051
@<TRIPOS>BOND
     1    18    19    1
     2    19    17    1
     3    15    17    1
     4    15     7    1
     5     8    13   ar
     6     9     8    1
     7    10     3    1
     8     1     4   am
     9    21    22   ar
    10    26    21    1
    11    26    27    1
    12    23    24   ar
    13    25    20   ar
    14    28    25    1
    15    28    29    1
    16    11     7   ar
    17    12    11    1
    18    13    10   ar
    19     3     1   am
    20     4    20    1
    21    15    16    2
    22     7     8   ar
    23    10    11   ar
    24     1     2    2
    25    20    21   ar
    26    22    23   ar
    27    24    25   ar
    28    13    14    1
    29     3     5    1
    30     4     6    1
@<TRIPOS>MOLECULE
MolPort-002-455-717 2685898 CSSS03437110693 ChemDiv-D039-0045 MCULE-8838929789 PubChem-2134006 ZINC000002685898 ZINC02685898
 29 30 0 0 0
SMALL
GASTEIGER

@<TRIPOS>ATOM
      1 C          12.4063   42.0011    7.2527 C.2     1  UNL1        0.3092
      2 O          12.2823   43.1048    7.8503 O.2     1  UNL1       -0.2521
      3 N          11.2542   41.2765    6.8123 N.am    1  UNL1       -0.2551
      4 N          13.7064   41.4767    6.9686 N.am    1  UNL1       -0.2686
      5 H          11.4056   40.4357    6.3229 H       1  UNL1        0.1578
      6 H          13.7648   40.7158    6.3467 H       1  UNL1        0.1564
      7 C           7.9602   42.0599    8.0219 C.ar    1  UNL1        0.0857
      8 C           7.9306   42.4620    6.6917 C.ar    1  UNL1        0.0408
      9 C           6.7705   43.0732    5.9843 C.3     1  UNL1        0.0500
     10 C           9.8971   41.6803    7.0288 C.ar    1  UNL1        0.1085
     11 C           9.2321   41.5577    8.2293 C.ar    1  UNL1        0.0153
     12 C           9.7932   40.9917    9.4899 C.3     1  UNL1        0.0342
     13 N           9.1115   42.2323    6.0823 N.ar    1  UNL1       -0.3451
     14 H           9.3490   42.4261    5.1467 H       1  UNL1        0.1668
     15 C           6.8670   42.1472    9.0116 C.2     1  UNL1        0.3421
     16 O           6.5322   41.1277    9.6748 O.2     1  UNL1       -0.2449
     17 O           6.2058   43.3607    9.2119 O.3     1  UNL1       -0.4454
     18 C           4.3851   44.4435    8.0908 C.3     1  UNL1        0.0513
     19 C           4.7902   43.4618    9.1705 C.3     1  UNL1        0.2089
     20 C          14.9331   41.9777    7.5232 C.ar    1  UNL1        0.0435
     21 C          15.5485   43.0960    6.9260 C.ar    1  UNL1       -0.0090
     22 C          16.7436   43.6011    7.4477 C.ar    1  UNL1       -0.0031
     23 C          17.3520   42.9850    8.5408 C.ar    1  UNL1       -0.0006
     24 C          16.7708   41.8552    9.1161 C.ar    1  UNL1       -0.0031
     25 C          15.5681   41.3429    8.6175 C.ar    1  UNL1       -0.0090
     26 C          14.9217   43.7932    5.7629 C.3     1  UNL1        0.0276
     27 C          15.2563   45.2725    5.7967 C.3     1  UNL1        0.0051
     28 C          15.0459   40.0754    9.2123 C.3     1  UNL1        0.0276
     29 C          16.0907   39.4508   10.1174 C.3     1  UNL1        0.0051
@<TRIPOS>BOND
     1    18    19    1
     2    19    17    1
     3    15    17    1
     4    15     7    1
     5     8    13   ar
     6     9     8    1
     7    10     3    1
     8     1     4   am
     9    21    22   ar
    10    26    21    1
    11    26    27    1
    12    23    24   ar
    13    25    20   ar
    14    28    25    1
    15    28    29    1
    16    11     7   ar
    17    12    11    1
    18    13    10   ar
    19     3     1   am
    20     4    20    1
    21    15    16    2
    22     7     8   ar
    23    10    11   ar
    24     1     2    2
    25    20    21   ar
    26    22    23   ar
    27    24    25   ar
    28    13    14    1
    29     3     5    1
    30     4     6    1
@<TRIPOS>MOLECULE
MolPort-002-455-717 2685898 CSSS03437110693 ChemDiv-D039-0045 MCULE-8838929789 PubChem-2134006 ZINC000002685898 ZINC02685898
 29 30 0 0 0
SMALL
GASTEIGER

@<TRIPOS>ATOM
      1 C          10.2498   40.1553    9.0723 C.2     1  UNL1        0.3092
      2 O          11.0735   40.9437    8.5332 O.2     1  UNL1       -0.2521
      3 N          10.6847   38.9057    9.6162 N.am    1  UNL1       -0.2551
      4 N           8.8712   40.5192    9.1853 N.am    1  UNL1       -0.2686
      5 H          10.0080   38.3404   10.0541 H       1  UNL1        0.1578
      6 H           8.3008   39.9679    9.7684 H       1  UNL1        0.1564
      7 C          14.1703   38.1320   10.0402 C.ar    1  UNL1        0.0857
      8 C          13.7663   37.2930    9.0083 C.ar    1  UNL1        0.0408
      9 C          14.6259   36.3159    8.2829 C.3     1  UNL1        0.0500
     10 C          12.0293   38.4139    9.5725 C.ar    1  UNL1        0.1085
     11 C          13.0434   38.8502   10.3970 C.ar    1  UNL1        0.0153
     12 C          12.9257   39.8925   11.4572 C.3     1  UNL1        0.0342
     13 N          12.4597   37.4619    8.7203 N.ar    1  UNL1       -0.3451
     14 H          11.9330   36.9909    8.0347 H       1  UNL1        0.1668
     15 C          15.5180   38.2398   10.6354 C.2     1  UNL1        0.3421
     16 O          15.7001   37.9366   11.8462 O.2     1  UNL1       -0.2449
     17 O          16.5898   38.6774    9.8546 O.3     1  UNL1       -0.4454
     18 C          18.8888   38.8923   10.4968 C.3     1  UNL1        0.0513
     19 C          17.5551   39.5941   10.3481 C.3     1  UNL1        0.2089
     20 C           8.2568   41.6290    8.5114 C.ar    1  UNL1        0.0435
     21 C           7.7977   41.4592    7.1900 C.ar    1  UNL1       -0.0090
     22 C           7.1970   42.5254    6.5133 C.ar    1  UNL1       -0.0031
     23 C           7.0763   43.7717    7.1271 C.ar    1  UNL1       -0.0006
     24 C           7.5612   43.9608    8.4211 C.ar    1  UNL1       -0.0031
     25 C           8.1527   42.9029    9.1199 C.ar    1  UNL1       -0.0090
     26 C           7.8952   40.1365    6.5025 C.3     1  UNL1        0.0276
     27 C           6.5088   39.5997    6.2004 C.3     1  UNL1        0.0051
     28 C           8.7399   43.1915   10.4634 C.3     1  UNL1        0.0276
     29 C          10.1479   43.7357   10.3149 C.3     1  UNL1        0.0051
@<TRIPOS>BOND
     1    18    19    1
     2    19    17    1
     3    15    17    1
     4    15     7    1
     5     8    13   ar
     6     9     8    1
     7    10     3    1
     8     1     4   am
     9    21    22   ar
    10    26    21    1
    11    26    27    1
    12    23    24   ar
    13    25    20   ar
    14    28    25    1
    15    28    29    1
    16    11     7   ar
    17    12    11    1
    18    13    10   ar
    19     3     1   am
    20     4    20    1
    21    15    16    2
    22     7     8   ar
    23    10    11   ar
    24     1     2    2
    25    20    21   ar
    26    22    23   ar
    27    24    25   ar
    28    13    14    1
    29     3     5    1
    30     4     6    1
@<TRIPOS>MOLECULE
MolPort-002-455-717 2685898 CSSS03437110693 ChemDiv-D039-0045 MCULE-8838929789 PubChem-2134006 ZINC000002685898 ZINC02685898
 29 30 0 0 0
SMALL
GASTEIGER

@<TRIPOS>ATOM
      1 C          10.5279   39.7515    9.0631 C.2     1  UNL1        0.3092
      2 O          11.3257   40.3481    8.2897 O.2     1  UNL1       -0.2521
      3 N          10.9633   38.6296    9.8365 N.am    1  UNL1       -0.2551
      4 N           9.1830   40.2158    9.2102 N.am    1  UNL1       -0.2686
      5 H          10.3108   38.2186   10.4485 H       1  UNL1        0.1578
      6 H           8.6511   39.8441    9.9505 H       1  UNL1        0.1564
      7 C          14.4276   37.7249   10.1644 C.ar    1  UNL1        0.0857
      8 C          13.9130   36.7640    9.3021 C.ar    1  UNL1        0.0408
      9 C          14.6717   35.6389    8.6869 C.3     1  UNL1        0.0500
     10 C          12.2759   38.0583    9.7887 C.ar    1  UNL1        0.1085
     11 C          13.3646   38.5543   10.4725 C.ar    1  UNL1        0.0153
     12 C          13.3713   39.7508   11.3627 C.3     1  UNL1        0.0342
     13 N          12.5995   36.9640    9.0707 N.ar    1  UNL1       -0.3451
     14 H          12.0044   36.4261    8.4999 H       1  UNL1        0.1668
     15 C          15.8168   37.8422   10.6531 C.2     1  UNL1        0.3421
     16 O          16.1381   37.3486   11.7686 O.2     1  UNL1       -0.2449
     17 O          16.7734   38.5000    9.8771 O.3     1  UNL1       -0.4454
     18 C          16.3989   40.8105    9.3619 C.3     1  UNL1        0.0513
     19 C          17.2055   39.8193   10.1745 C.3     1  UNL1        0.2089
     20 C           8.5507   41.1840    8.3580 C.ar    1  UNL1        0.0435
     21 C           8.3817   42.5023    8.8264 C.ar    1  UNL1       -0.0090
     22 C           7.7683   43.4620    8.0152 C.ar    1  UNL1       -0.0031
     23 C           7.2909   43.1160    6.7515 C.ar    1  UNL1       -0.0006
     24 C           7.4196   41.8051    6.2931 C.ar    1  UNL1       -0.0031
     25 C           8.0428   40.8338    7.0840 C.ar    1  UNL1       -0.0090
     26 C           8.8919   42.9166   10.1681 C.3     1  UNL1        0.0276
     27 C          10.2995   43.4691   10.0454 C.3     1  UNL1        0.0051
     28 C           8.0638   39.4272    6.5800 C.3     1  UNL1        0.0276
     29 C           9.0113   39.3059    5.4017 C.3     1  UNL1        0.0051
@<TRIPOS>BOND
     1    18    19    1
     2    19    17    1
     3    15    17    1
     4    15     7    1
     5     8    13   ar
     6     9     8    1
     7    10     3    1
     8     1     4   am
     9    21    22   ar
    10    26    21    1
    11    26    27    1
    12    23    24   ar
    13    25    20   ar
    14    28    25    1
    15    28    29    1
    16    11     7   ar
    17    12    11    1
    18    13    10   ar
    19     3     1   am
    20     4    20    1
    21    15    16    2
    22     7     8   ar
    23    10    11   ar
    24     1     2    2
    25    20    21   ar
    26    22    23   ar
    27    24    25   ar
    28    13    14    1
    29     3     5    1
    30     4     6    1
@<TRIPOS>MOLECULE
MolPort-002-455-717 2685898 CSSS03437110693 ChemDiv-D039-0045 MCULE-8838929789 PubChem-2134006 ZINC000002685898 ZINC02685898
 29 30 0 0 0
SMALL
GASTEIGER

@<TRIPOS>ATOM
      1 C           8.3753   41.6339    9.8446 C.2     1  UNL1        0.3092
      2 O           8.3940   41.5313    8.5878 O.2     1  UNL1       -0.2521
      3 N           9.4437   41.1055   10.6357 N.am    1  UNL1       -0.2551
      4 N           7.3024   42.3193   10.4965 N.am    1  UNL1       -0.2686
      5 H           9.3971   41.2391   11.6100 H       1  UNL1        0.1578
      6 H           7.4138   42.5376   11.4500 H       1  UNL1        0.1564
      7 C          12.5257   39.9771    9.1676 C.ar    1  UNL1        0.0857
      8 C          11.9050   38.8042    9.5808 C.ar    1  UNL1        0.0408
      9 C          12.4431   37.4236    9.4253 C.3     1  UNL1        0.0500
     10 C          10.5762   40.3969   10.1189 C.ar    1  UNL1        0.1085
     11 C          11.6613   40.9980    9.5191 C.ar    1  UNL1        0.0153
     12 C          11.8452   42.4620    9.3025 C.3     1  UNL1        0.0342
     13 N          10.7147   39.0565   10.1626 N.ar    1  UNL1       -0.3451
     14 H          10.0825   38.4021   10.5385 H       1  UNL1        0.1668
     15 C          13.8333   40.1126    8.4936 C.2     1  UNL1        0.3421
     16 O          13.9567   40.8836    7.5029 O.2     1  UNL1       -0.2449
     17 O          14.9323   39.3859    8.9561 O.3     1  UNL1       -0.4454
     18 C          16.7802   38.8177   10.3727 C.3     1  UNL1        0.0513
     19 C          15.4973   39.6114   10.2390 C.3     1  UNL1        0.2089
     20 C           6.0745   42.7129    9.8636 C.ar    1  UNL1        0.0435
     21 C           6.1064   43.7063    8.8647 C.ar    1  UNL1       -0.0090
     22 C           4.9237   44.1065    8.2349 C.ar    1  UNL1       -0.0031
     23 C           3.7015   43.5504    8.6112 C.ar    1  UNL1       -0.0006
     24 C           3.6542   42.5934    9.6246 C.ar    1  UNL1       -0.0031
     25 C           4.8279   42.1697   10.2572 C.ar    1  UNL1       -0.0090
     26 C           7.3966   44.3163    8.4230 C.3     1  UNL1        0.0276
     27 C           7.8413   45.3759    9.4135 C.3     1  UNL1        0.0051
     28 C           4.7030   41.2154   11.4003 C.3     1  UNL1        0.0276
     29 C           3.7693   40.0773   11.0343 C.3     1  UNL1        0.0051
@<TRIPOS>BOND
     1    18    19    1
     2    19    17    1
     3    15    17    1
     4    15     7    1
     5     8    13   ar
     6     9     8    1
     7    10     3    1
     8     1     4   am
     9    21    22   ar
    10    26    21    1
    11    26    27    1
    12    23    24   ar
    13    25    20   ar
    14    28    25    1
    15    28    29    1
    16    11     7   ar
    17    12    11    1
    18    13    10   ar
    19     3     1   am
    20     4    20    1
    21    15    16    2
    22     7     8   ar
    23    10    11   ar
    24     1     2    2
    25    20    21   ar
    26    22    23   ar
    27    24    25   ar
    28    13    14    1
    29     3     5    1
    30     4     6    1
@<TRIPOS>MOLECULE
MolPort-002-455-717 2685898 CSSS03437110693 ChemDiv-D039-0045 MCULE-8838929789 PubChem-2134006 ZINC000002685898 ZINC02685898
 29 30 0 0 0
SMALL
GASTEIGER

@<TRIPOS>ATOM
      1 C          12.0583   41.9254    7.5784 C.2     1  UNL1        0.3092
      2 O          12.0491   42.9109    8.3654 O.2     1  UNL1       -0.2521
      3 N          10.8331   41.3493    7.1164 N.am    1  UNL1       -0.2551
      4 N          13.2980   41.3945    7.1019 N.am    1  UNL1       -0.2686
      5 H          10.8944   40.6017    6.4787 H       1  UNL1        0.1578
      6 H          13.2622   40.7535    6.3555 H       1  UNL1        0.1564
      7 C           7.7031   42.0953    8.7206 C.ar    1  UNL1        0.0857
      8 C           7.5825   42.6823    7.4665 C.ar    1  UNL1        0.0408
      9 C           6.4020   43.4369    6.9596 C.3     1  UNL1        0.0500
     10 C           9.5241   41.7766    7.5104 C.ar    1  UNL1        0.1085
     11 C           8.9581   41.5143    8.7391 C.ar    1  UNL1        0.0153
     12 C           9.5925   40.7521    9.8530 C.3     1  UNL1        0.0342
     13 N           8.6924   42.4903    6.7250 N.ar    1  UNL1       -0.3451
     14 H           8.8596   42.8040    5.8069 H       1  UNL1        0.1668
     15 C           6.7049   42.0888    9.8096 C.2     1  UNL1        0.3421
     16 O           7.0796   41.9860   11.0097 O.2     1  UNL1       -0.2449
     17 O           5.3459   42.1973    9.5076 O.3     1  UNL1       -0.4454
     18 C           3.0839   41.4050    9.5061 C.3     1  UNL1        0.0513
     19 C           4.5371   41.0573    9.2590 C.3     1  UNL1        0.2089
     20 C          14.5913   41.7268    7.6313 C.ar    1  UNL1        0.0435
     21 C          15.3032   42.8071    7.0727 C.ar    1  UNL1       -0.0090
     22 C          16.5644   43.1489    7.5708 C.ar    1  UNL1       -0.0031
     23 C          17.1408   42.4060    8.6006 C.ar    1  UNL1       -0.0006
     24 C          16.4608   41.3120    9.1353 C.ar    1  UNL1       -0.0031
     25 C          15.1923   40.9624    8.6601 C.ar    1  UNL1       -0.0090
     26 C          14.7147   43.6367    5.9785 C.3     1  UNL1        0.0276
     27 C          15.4275   44.9732    5.8935 C.3     1  UNL1        0.0051
     28 C          14.5565   39.7243    9.2040 C.3     1  UNL1        0.0276
     29 C          13.6804   40.0637   10.3948 C.3     1  UNL1        0.0051
@<TRIPOS>BOND
     1    18    19    1
     2    19    17    1
     3    15    17    1
     4    15     7    1
     5     8    13   ar
     6     9     8    1
     7    10     3    1
     8     1     4   am
     9    21    22   ar
    10    26    21    1
    11    26    27    1
    12    23    24   ar
    13    25    20   ar
    14    28    25    1
    15    28    29    1
    16    11     7   ar
    17    12    11    1
    18    13    10   ar
    19     3     1   am
    20     4    20    1
    21    15    16    2
    22     7     8   ar
    23    10    11   ar
    24     1     2    2
    25    20    21   ar
    26    22    23   ar
    27    24    25   ar
    28    13    14    1
    29     3     5    1
    30     4     6    1
@<TRIPOS>MOLECULE
MolPort-002-455-717 2685898 CSSS03437110693 ChemDiv-D039-0045 MCULE-8838929789 PubChem-2134006 ZINC000002685898 ZINC02685898
 29 30 0 0 0
SMALL
GASTEIGER

@<TRIPOS>ATOM
      1 C          10.4009   41.6033    8.0788 C.2     1  UNL1        0.3092
      2 O          10.5232   42.7014    8.6870 O.2     1  UNL1       -0.2521
      3 N          11.4450   41.1198    7.2288 N.am    1  UNL1       -0.2551
      4 N           9.2300   40.8029    8.2638 N.am    1  UNL1       -0.2686
      5 H          11.3139   40.2425    6.8017 H       1  UNL1        0.1578
      6 H           9.2507   39.8796    7.9227 H       1  UNL1        0.1564
      7 C          14.7590   42.5084    7.1007 C.ar    1  UNL1        0.0857
      8 C          14.1088   43.0991    6.0236 C.ar    1  UNL1        0.0408
      9 C          14.7019   44.0763    5.0678 C.3     1  UNL1        0.0500
     10 C          12.6667   41.8142    6.9515 C.ar    1  UNL1        0.1085
     11 C          13.8210   41.6819    7.6922 C.ar    1  UNL1        0.0153
     12 C          13.9999   40.8132    8.8912 C.3     1  UNL1        0.0342
     13 N          12.8314   42.6773    5.9290 N.ar    1  UNL1       -0.3451
     14 H          12.1624   42.9428    5.2572 H       1  UNL1        0.1668
     15 C          16.1573   42.7155    7.5298 C.2     1  UNL1        0.3421
     16 O          16.9633   43.3329    6.7812 O.2     1  UNL1       -0.2449
     17 O          16.5847   42.2268    8.7661 O.3     1  UNL1       -0.4454
     18 C          17.3281   40.2465    9.8929 C.3     1  UNL1        0.0513
     19 C          17.6714   41.3205    8.8820 C.3     1  UNL1        0.2089
     20 C           8.0261   41.2458    8.9102 C.ar    1  UNL1        0.0435
     21 C           6.9337   41.6531    8.1187 C.ar    1  UNL1       -0.0090
     22 C           5.7515   42.0890    8.7254 C.ar    1  UNL1       -0.0031
     23 C           5.6548   42.1547   10.1150 C.ar    1  UNL1       -0.0006
     24 C           6.7431   41.7894   10.9070 C.ar    1  UNL1       -0.0031
     25 C           7.9295   41.3374   10.3195 C.ar    1  UNL1       -0.0090
     26 C           6.9920   41.5842    6.6275 C.3     1  UNL1        0.0276
     27 C           6.9737   42.9818    6.0376 C.3     1  UNL1        0.0051
     28 C           9.0916   41.0537   11.2151 C.3     1  UNL1        0.0276
     29 C           8.6858   41.2131   12.6679 C.3     1  UNL1        0.0051
@<TRIPOS>BOND
     1    18    19    1
     2    19    17    1
     3    15    17    1
     4    15     7    1
     5     8    13   ar
     6     9     8    1
     7    10     3    1
     8     1     4   am
     9    21    22   ar
    10    26    21    1
    11    26    27    1
    12    23    24   ar
    13    25    20   ar
    14    28    25    1
    15    28    29    1
    16    11     7   ar
    17    12    11    1
    18    13    10   ar
    19     3     1   am
    20     4    20    1
    21    15    16    2
    22     7     8   ar
    23    10    11   ar
    24     1     2    2
    25    20    21   ar
    26    22    23   ar
    27    24    25   ar
    28    13    14    1
    29     3     5    1
    30     4     6    1
@<TRIPOS>MOLECULE
MolPort-002-455-717 2685898 CSSS03437110693 ChemDiv-D039-0045 MCULE-8838929789 PubChem-2134006 ZINC000002685898 ZINC02685898
 29 30 0 0 0
SMALL
GASTEIGER

@<TRIPOS>ATOM
      1 C          12.0281   41.9010    8.1413 C.2     1  UNL1        0.3092
      2 O          12.1520   42.8835    8.9224 O.2     1  UNL1       -0.2521
      3 N          10.7605   41.2605    7.9700 N.am    1  UNL1       -0.2551
      4 N          13.1479   41.4381    7.3813 N.am    1  UNL1       -0.2686
      5 H          10.7097   40.5182    7.3253 H       1  UNL1        0.1578
      6 H          12.9719   40.7972    6.6550 H       1  UNL1        0.1564
      7 C           8.0499   41.8184   10.2655 C.ar    1  UNL1        0.0857
      8 C           7.6248   42.4320    9.0931 C.ar    1  UNL1        0.0408
      9 C           6.3315   43.1443    8.8934 C.3     1  UNL1        0.0500
     10 C           9.5595   41.6163    8.6647 C.ar    1  UNL1        0.1085
     11 C           9.2981   41.2958    9.9791 C.ar    1  UNL1        0.0153
     12 C          10.1982   40.5347   10.8927 C.3     1  UNL1        0.0342
     13 N           8.5439   42.3112    8.1136 N.ar    1  UNL1       -0.3451
     14 H           8.4858   42.6564    7.1935 H       1  UNL1        0.1668
     15 C           7.3262   41.7370   11.5507 C.2     1  UNL1        0.3421
     16 O           7.7478   42.3739   12.5547 O.2     1  UNL1       -0.2449
     17 O           6.1742   40.9543   11.6515 O.3     1  UNL1       -0.4454
     18 C           3.9528   40.3838   10.9559 C.3     1  UNL1        0.0513
     19 C           4.8793   41.4883   11.4196 C.3     1  UNL1        0.2089
     20 C          14.5101   41.8388    7.5988 C.ar    1  UNL1        0.0435
     21 C          15.2706   41.1752    8.5821 C.ar    1  UNL1       -0.0090
     22 C          16.5986   41.5482    8.8124 C.ar    1  UNL1       -0.0031
     23 C          17.1704   42.5985    8.0951 C.ar    1  UNL1       -0.0006
     24 C          16.4149   43.2865    7.1458 C.ar    1  UNL1       -0.0031
     25 C          15.0891   42.9194    6.8911 C.ar    1  UNL1       -0.0090
     26 C          14.6997   40.0359    9.3617 C.3     1  UNL1        0.0276
     27 C          15.7361   39.4892   10.3254 C.3     1  UNL1        0.0051
     28 C          14.3018   43.7549    5.9344 C.3     1  UNL1        0.0276
     29 C          14.9782   45.0971    5.7301 C.3     1  UNL1        0.0051
@<TRIPOS>BOND
     1    18    19    1
     2    19    17    1
     3    15    17    1
     4    15     7    1
     5     8    13   ar
     6     9     8    1
     7    10     3    1
     8     1     4   am
     9    21    22   ar
    10    26    21    1
    11    26    27    1
    12    23    24   ar
    13    25    20   ar
    14    28    25    1
    15    28    29    1
    16    11     7   ar
    17    12    11    1
    18    13    10   ar
    19     3     1   am
    20     4    20    1
    21    15    16    2
    22     7     8   ar
    23    10    11   ar
    24     1     2    2
    25    20    21   ar
    26    22    23   ar
    27    24    25   ar
    28    13    14    1
    29     3     5    1
    30     4     6    1
@<TRIPOS>MOLECULE
MolPort-002-455-717 2685898 CSSS03437110693 ChemDiv-D039-0045 MCULE-8838929789 PubChem-2134006 ZINC000002685898 ZINC02685898
 29 30 0 0 0
SMALL
GASTEIGER

@<TRIPOS>ATOM
      1 C          10.0638   40.5078    9.0643 C.2     1  UNL1        0.3092
      2 O          10.8281   41.4841    8.8339 O.2     1  UNL1       -0.2521
      3 N          10.5893   39.2681    9.5476 N.am    1  UNL1       -0.2551
      4 N           8.6509   40.6399    8.8850 N.am    1  UNL1       -0.2686
      5 H           9.9475   38.5472    9.7417 H       1  UNL1        0.1578
      6 H           8.0771   39.9260    9.2463 H       1  UNL1        0.1564
      7 C          13.8441   37.9322   10.2884 C.ar    1  UNL1        0.0857
      8 C          14.1027   39.2401    9.8956 C.ar    1  UNL1        0.0408
      9 C          15.4435   39.8852    9.8177 C.3     1  UNL1        0.0500
     10 C          11.9776   38.9952    9.7706 C.ar    1  UNL1        0.1085
     11 C          12.4715   37.7842   10.2042 C.ar    1  UNL1        0.0153
     12 C          11.6660   36.5682   10.5152 C.3     1  UNL1        0.0342
     13 N          12.9656   39.8921    9.5783 N.ar    1  UNL1       -0.3451
     14 H          12.8762   40.8235    9.2718 H       1  UNL1        0.1668
     15 C          14.8239   36.9098   10.7090 C.2     1  UNL1        0.3421
     16 O          15.2780   36.9161   11.8859 O.2     1  UNL1       -0.2449
     17 O          15.2455   35.9360    9.8013 O.3     1  UNL1       -0.4454
     18 C          15.6622   35.7336    7.4498 C.3     1  UNL1        0.0513
     19 C          16.1938   36.2172    8.7829 C.3     1  UNL1        0.2089
     20 C           8.0068   41.7365    8.2172 C.ar    1  UNL1        0.0435
     21 C           7.6424   41.5953    6.8634 C.ar    1  UNL1       -0.0090
     22 C           7.0150   42.6494    6.1919 C.ar    1  UNL1       -0.0031
     23 C           6.7739   43.8575    6.8454 C.ar    1  UNL1       -0.0006
     24 C           7.1643   44.0207    8.1743 C.ar    1  UNL1       -0.0031
     25 C           7.7807   42.9734    8.8675 C.ar    1  UNL1       -0.0090
     26 C           7.8701   40.3127    6.1319 C.3     1  UNL1        0.0276
     27 C           6.6027   39.4788    6.1299 C.3     1  UNL1        0.0051
     28 C           8.2633   43.2401   10.2564 C.3     1  UNL1        0.0276
     29 C           9.3837   44.2625   10.2354 C.3     1  UNL1        0.0051
@<TRIPOS>BOND
     1    18    19    1
     2    19    17    1
     3    15    17    1
     4    15     7    1
     5     8    13   ar
     6     9     8    1
     7    10     3    1
     8     1     4   am
     9    21    22   ar
    10    26    21    1
    11    26    27    1
    12    23    24   ar
    13    25    20   ar
    14    28    25    1
    15    28    29    1
    16    11     7   ar
    17    12    11    1
    18    13    10   ar
    19     3     1   am
    20     4    20    1
    21    15    16    2
    22     7     8   ar
    23    10    11   ar
    24     1     2    2
    25    20    21   ar
    26    22    23   ar
    27    24    25   ar
    28    13    14    1
    29     3     5    1
    30     4     6    1
