@<TRIPOS>MOLECULE
MolPort-003-112-226 8959242 CSSS03437111492 IFPSXIOGDDLVEH-UHFFFAOYSA-N MCULE-9135975262 PubChem-40887138 ZINC000008959242 ZINC08959242
 35 37 0 0 0
SMALL
GASTEIGER

@<TRIPOS>ATOM
      1 C           6.6476   40.0776    8.1920 C.ar    1  UNL1        0.0537
      2 C           6.8809   39.9617    6.8168 C.ar    1  UNL1        0.0528
      3 C           8.1616   39.7058    6.3149 C.ar    1  UNL1        0.1533
      4 C           9.2529   39.5935    7.2164 C.ar    1  UNL1        0.0881
      5 C           8.9999   39.6890    8.5937 C.ar    1  UNL1        0.0193
      6 C           7.7135   39.9259    9.0769 C.ar    1  UNL1        0.0162
      7 C          11.1306   40.1774    5.6626 C.2     1  UNL1        0.2320
      8 C          10.5747   40.0130    4.2771 C.3     1  UNL1        0.1095
      9 C          10.1194   41.3572    3.7302 C.3     1  UNL1        0.0129
     10 C          11.6611   39.4686    3.3691 C.3     1  UNL1        0.0129
     11 C           9.4188   39.0232    4.2621 C.3     1  UNL1        0.2138
     12 O          12.1048   40.9584    5.8458 O.2     1  UNL1       -0.2744
     13 O           8.2744   39.5407    4.9296 O.3     1  UNL1       -0.4737
     14 N          10.6128   39.4241    6.7716 N.am    1  UNL1       -0.2559
     15 C           4.8987   41.5266    9.3884 C.2     1  UNL1        0.2497
     16 O           5.6889   42.4938    9.5638 O.2     1  UNL1       -0.2698
     17 N           5.3403   40.3331    8.7229 N.am    1  UNL1       -0.2803
     18 H           4.6753   39.6145    8.6203 H       1  UNL1        0.1552
     19 C           1.1112   41.5291    9.4291 C.ar    1  UNL1        0.1756
     20 C           2.4415   41.4431    8.9886 C.ar    1  UNL1        0.0448
     21 C           3.5095   41.6215    9.8707 C.ar    1  UNL1        0.0599
     22 C           3.2426   41.8904   11.2149 C.ar    1  UNL1        0.0448
     23 C           1.9238   41.9818   11.6827 C.ar    1  UNL1        0.1756
     24 C           0.8484   41.8021   10.7958 C.ar    1  UNL1        0.2061
     25 C          -0.7378   42.4158    8.0341 C.3     1  UNL1        0.2526
     26 O           0.0610   41.3457    8.5221 O.3     1  UNL1       -0.4683
     27 C           0.6285   41.5938   13.7586 C.3     1  UNL1        0.2526
     28 O           1.6565   42.2514   13.0299 O.3     1  UNL1       -0.4683
     29 C          -0.8204   42.7360   12.4173 C.3     1  UNL1        0.2528
     30 O          -0.4486   41.9054   11.3268 O.3     1  UNL1       -0.4654
     31 C          11.5162   38.5476    7.5207 C.3     1  UNL1        0.0983
     32 C          12.8402   39.2353    7.8463 C.3     1  UNL1        0.0219
     33 C          12.7381   40.0979    9.0923 C.3     1  UNL1        0.0017
     34 C          11.2838   40.3956    9.4036 C.3     1  UNL1        0.0001
     35 C          13.3560   39.3621   10.2620 C.3     1  UNL1        0.0001
@<TRIPOS>BOND
     1    25    26    1
     2    19    26    1
     3    20    21   ar
     4    21    15    1
     5    22    23   ar
     6    23    28    1
     7    27    28    1
     8    24    30    1
     9    24    19   ar
    10    29    30    1
    11    15    17   am
    12     2     3   ar
    13     3    13    1
    14     4     5   ar
    15     4    14    1
    16     6     1   ar
    17    31    14    1
    18    31    32    1
    19    32    33    1
    20    33    34    1
    21    33    35    1
    22     8     7    1
    23     8     9    1
    24     8    10    1
    25     8    11    1
    26    11    13    1
    27    17     1    1
    28    14     7   am
    29    19    20   ar
    30    21    22   ar
    31    23    24   ar
    32    15    16    2
    33     1     2   ar
    34     3     4   ar
    35     5     6   ar
    36     7    12    2
    37    17    18    1
@<TRIPOS>MOLECULE
MolPort-003-112-226 8959242 CSSS03437111492 IFPSXIOGDDLVEH-UHFFFAOYSA-N MCULE-9135975262 PubChem-40887138 ZINC000008959242 ZINC08959242
 35 37 0 0 0
SMALL
GASTEIGER

@<TRIPOS>ATOM
      1 C           5.1396   41.9798   10.9093 C.ar    1  UNL1        0.0537
      2 C           5.2766   40.9728    9.9470 C.ar    1  UNL1        0.0528
      3 C           6.3605   40.9538    9.0625 C.ar    1  UNL1        0.1533
      4 C           7.3243   41.9949    9.1203 C.ar    1  UNL1        0.0881
      5 C           7.1863   42.9852   10.1053 C.ar    1  UNL1        0.0193
      6 C           6.1091   42.9777   10.9908 C.ar    1  UNL1        0.0162
      7 C           8.2132   41.8617    6.7807 C.2     1  UNL1        0.2320
      8 C           7.7918   40.5158    6.2643 C.3     1  UNL1        0.1095
      9 C           6.5197   40.6434    5.4404 C.3     1  UNL1        0.0129
     10 C           8.8873   39.9624    5.3729 C.3     1  UNL1        0.0129
     11 C           7.5801   39.5307    7.4048 C.3     1  UNL1        0.2138
     12 O           8.4408   42.7921    5.9591 O.2     1  UNL1       -0.2744
     13 O           6.4391   39.8663    8.1849 O.3     1  UNL1       -0.4737
     14 N           8.4151   42.0956    8.1843 N.am    1  UNL1       -0.2559
     15 C           2.6787   42.3642   11.5306 C.2     1  UNL1        0.2497
     16 O           2.3425   42.6978   10.3617 O.2     1  UNL1       -0.2698
     17 N           4.0385   42.0102   11.8272 N.am    1  UNL1       -0.2803
     18 H           4.2355   41.7621   12.7594 H       1  UNL1        0.1552
     19 C           1.0383   42.7632   14.9212 C.ar    1  UNL1        0.1756
     20 C           1.9881   42.7803   13.8873 C.ar    1  UNL1        0.0448
     21 C           1.6675   42.3376   12.6021 C.ar    1  UNL1        0.0599
     22 C           0.3764   41.8703   12.3469 C.ar    1  UNL1        0.0448
     23 C          -0.5923   41.8419   13.3604 C.ar    1  UNL1        0.1756
     24 C          -0.2708   42.2874   14.6540 C.ar    1  UNL1        0.2061
     25 C           0.5062   43.9607   17.0269 C.3     1  UNL1        0.2526
     26 O           1.3882   43.2130   16.1996 O.3     1  UNL1       -0.4683
     27 C          -2.4711   41.3929   11.8093 C.3     1  UNL1        0.2526
     28 O          -1.8861   41.3734   13.1045 O.3     1  UNL1       -0.4683
     29 C          -2.3906   43.1235   15.6996 C.3     1  UNL1        0.2528
     30 O          -1.2857   42.2342   15.6244 O.3     1  UNL1       -0.4654
     31 C           9.7301   42.5426    8.6497 C.3     1  UNL1        0.0983
     32 C           9.8677   42.4319   10.1665 C.3     1  UNL1        0.0219
     33 C          10.4258   41.0833   10.5870 C.3     1  UNL1        0.0017
     34 C          11.8345   40.9113   10.0517 C.3     1  UNL1        0.0001
     35 C          10.4555   41.0036   12.0983 C.3     1  UNL1        0.0001
@<TRIPOS>BOND
     1    25    26    1
     2    19    26    1
     3    20    21   ar
     4    21    15    1
     5    22    23   ar
     6    23    28    1
     7    27    28    1
     8    24    30    1
     9    24    19   ar
    10    29    30    1
    11    15    17   am
    12     2     3   ar
    13     3    13    1
    14     4     5   ar
    15     4    14    1
    16     6     1   ar
    17    31    14    1
    18    31    32    1
    19    32    33    1
    20    33    34    1
    21    33    35    1
    22     8     7    1
    23     8     9    1
    24     8    10    1
    25     8    11    1
    26    11    13    1
    27    17     1    1
    28    14     7   am
    29    19    20   ar
    30    21    22   ar
    31    23    24   ar
    32    15    16    2
    33     1     2   ar
    34     3     4   ar
    35     5     6   ar
    36     7    12    2
    37    17    18    1
@<TRIPOS>MOLECULE
MolPort-003-112-226 8959242 CSSS03437111492 IFPSXIOGDDLVEH-UHFFFAOYSA-N MCULE-9135975262 PubChem-40887138 ZINC000008959242 ZINC08959242
 35 37 0 0 0
SMALL
GASTEIGER

@<TRIPOS>ATOM
      1 C          10.9633   41.0622    9.8285 C.ar    1  UNL1        0.0537
      2 C          11.5355   40.2197   10.7885 C.ar    1  UNL1        0.0528
      3 C          12.8992   39.9077   10.7630 C.ar    1  UNL1        0.1533
      4 C          13.7133   40.4299    9.7235 C.ar    1  UNL1        0.0881
      5 C          13.1304   41.2916    8.7813 C.ar    1  UNL1        0.0193
      6 C          11.7730   41.6063    8.8332 C.ar    1  UNL1        0.0162
      7 C          15.5492   38.7239    9.7439 C.2     1  UNL1        0.2320
      8 C          15.4313   38.0191   11.0648 C.3     1  UNL1        0.1095
      9 C          14.6531   36.7225   10.9015 C.3     1  UNL1        0.0129
     10 C          16.8208   37.6839   11.5729 C.3     1  UNL1        0.0129
     11 C          14.7593   38.9056   12.1033 C.3     1  UNL1        0.2138
     12 O          16.0956   38.1277    8.7751 O.2     1  UNL1       -0.2744
     13 O          13.3834   39.1119   11.8076 O.3     1  UNL1       -0.4737
     14 N          15.1032   40.0798    9.5761 N.am    1  UNL1       -0.2559
     15 C           8.7943   41.9130    8.7506 C.2     1  UNL1        0.2497
     16 O           9.3288   42.1226    7.6277 O.2     1  UNL1       -0.2698
     17 N           9.5691   41.3970    9.8442 N.am    1  UNL1       -0.2803
     18 H           9.0926   41.2585   10.6945 H       1  UNL1        0.1552
     19 C           5.4669   43.7225    8.7255 C.ar    1  UNL1        0.1756
     20 C           6.8290   43.4303    8.5510 C.ar    1  UNL1        0.0448
     21 C           7.3619   42.2003    8.9430 C.ar    1  UNL1        0.0599
     22 C           6.5189   41.2473    9.5188 C.ar    1  UNL1        0.0448
     23 C           5.1544   41.5120    9.7051 C.ar    1  UNL1        0.1756
     24 C           4.6172   42.7493    9.3107 C.ar    1  UNL1        0.2061
     25 C           3.7112   45.1146    7.6621 C.3     1  UNL1        0.2526
     26 O           4.9609   44.9639    8.3230 O.3     1  UNL1       -0.4683
     27 C           4.3725   40.2025   11.6573 C.3     1  UNL1        0.2526
     28 O           4.3097   40.5568   10.2823 O.3     1  UNL1       -0.4683
     29 C           2.5210   42.5163   10.6663 C.3     1  UNL1        0.2528
     30 O           3.2431   42.9523    9.5236 O.3     1  UNL1       -0.4654
     31 C          16.0654   41.0981    9.1484 C.3     1  UNL1        0.0983
     32 C          15.5588   41.8952    7.9485 C.3     1  UNL1        0.0219
     33 C          16.5750   42.9235    7.4827 C.3     1  UNL1        0.0017
     34 C          15.8665   44.1634    6.9718 C.3     1  UNL1        0.0001
     35 C          17.4686   43.3047    8.6435 C.3     1  UNL1        0.0001
@<TRIPOS>BOND
     1    25    26    1
     2    19    26    1
     3    20    21   ar
     4    21    15    1
     5    22    23   ar
     6    23    28    1
     7    27    28    1
     8    24    30    1
     9    24    19   ar
    10    29    30    1
    11    15    17   am
    12     2     3   ar
    13     3    13    1
    14     4     5   ar
    15     4    14    1
    16     6     1   ar
    17    31    14    1
    18    31    32    1
    19    32    33    1
    20    33    34    1
    21    33    35    1
    22     8     7    1
    23     8     9    1
    24     8    10    1
    25     8    11    1
    26    11    13    1
    27    17     1    1
    28    14     7   am
    29    19    20   ar
    30    21    22   ar
    31    23    24   ar
    32    15    16    2
    33     1     2   ar
    34     3     4   ar
    35     5     6   ar
    36     7    12    2
    37    17    18    1
@<TRIPOS>MOLECULE
MolPort-003-112-226 8959242 CSSS03437111492 IFPSXIOGDDLVEH-UHFFFAOYSA-N MCULE-9135975262 PubChem-40887138 ZINC000008959242 ZINC08959242
 35 37 0 0 0
SMALL
GASTEIGER

@<TRIPOS>ATOM
      1 C          10.9347   42.1023    8.3348 C.ar    1  UNL1        0.0537
      2 C          11.5362   42.6285    7.1858 C.ar    1  UNL1        0.0528
      3 C          12.9263   42.6278    7.0266 C.ar    1  UNL1        0.1533
      4 C          13.7455   42.1124    8.0656 C.ar    1  UNL1        0.0881
      5 C          13.1274   41.5672    9.2016 C.ar    1  UNL1        0.0193
      6 C          11.7394   41.5596    9.3349 C.ar    1  UNL1        0.0162
      7 C          15.8716   43.3386    7.5580 C.2     1  UNL1        0.2320
      8 C          15.7285   43.8282    6.1454 C.3     1  UNL1        0.1095
      9 C          15.2586   45.2748    6.1354 C.3     1  UNL1        0.0129
     10 C          17.0787   43.7575    5.4577 C.3     1  UNL1        0.0129
     11 C          14.7604   42.9581    5.3571 C.3     1  UNL1        0.2138
     12 O          16.6496   43.9465    8.3439 O.2     1  UNL1       -0.2744
     13 O          13.4219   43.1151    5.8118 O.3     1  UNL1       -0.4737
     14 N          15.1847   42.1622    8.0161 N.am    1  UNL1       -0.2559
     15 C           8.7271   43.0325    9.2574 C.2     1  UNL1        0.2497
     16 O           9.2785   43.9990    9.8510 O.2     1  UNL1       -0.2698
     17 N           9.5116   42.0895    8.5107 N.am    1  UNL1       -0.2803
     18 H           9.0206   41.3569    8.0733 H       1  UNL1        0.1552
     19 C           5.3188   41.5315    9.9483 C.ar    1  UNL1        0.1756
     20 C           6.7097   41.7058    9.8695 C.ar    1  UNL1        0.0448
     21 C           7.2645   42.8687    9.3305 C.ar    1  UNL1        0.0599
     22 C           6.4144   43.8732    8.8627 C.ar    1  UNL1        0.0448
     23 C           5.0214   43.7260    8.9289 C.ar    1  UNL1        0.1756
     24 C           4.4622   42.5563    9.4714 C.ar    1  UNL1        0.2061
     25 C           4.2694   40.2785   11.8137 C.3     1  UNL1        0.2526
     26 O           4.7913   40.3552   10.4935 O.3     1  UNL1       -0.4683
     27 C           4.2072   45.2135    7.1228 C.3     1  UNL1        0.2526
     28 O           4.1697   44.7328    8.4599 O.3     1  UNL1       -0.4683
     29 C           2.3014   41.3304    9.1333 C.3     1  UNL1        0.2528
     30 O           3.0602   42.4705    9.5100 O.3     1  UNL1       -0.4654
     31 C          15.9667   41.0378    8.5353 C.3     1  UNL1        0.0983
     32 C          15.0822   39.9833    9.1968 C.3     1  UNL1        0.0219
     33 C          15.7094   39.4347   10.4667 C.3     1  UNL1        0.0017
     34 C          14.6288   38.9699   11.4241 C.3     1  UNL1        0.0001
     35 C          16.6016   38.2627   10.1177 C.3     1  UNL1        0.0001
@<TRIPOS>BOND
     1    25    26    1
     2    19    26    1
     3    20    21   ar
     4    21    15    1
     5    22    23   ar
     6    23    28    1
     7    27    28    1
     8    24    30    1
     9    24    19   ar
    10    29    30    1
    11    15    17   am
    12     2     3   ar
    13     3    13    1
    14     4     5   ar
    15     4    14    1
    16     6     1   ar
    17    31    14    1
    18    31    32    1
    19    32    33    1
    20    33    34    1
    21    33    35    1
    22     8     7    1
    23     8     9    1
    24     8    10    1
    25     8    11    1
    26    11    13    1
    27    17     1    1
    28    14     7   am
    29    19    20   ar
    30    21    22   ar
    31    23    24   ar
    32    15    16    2
    33     1     2   ar
    34     3     4   ar
    35     5     6   ar
    36     7    12    2
    37    17    18    1
@<TRIPOS>MOLECULE
MolPort-003-112-226 8959242 CSSS03437111492 IFPSXIOGDDLVEH-UHFFFAOYSA-N MCULE-9135975262 PubChem-40887138 ZINC000008959242 ZINC08959242
 35 37 0 0 0
SMALL
GASTEIGER

@<TRIPOS>ATOM
      1 C          11.1742   42.1729    8.2667 C.ar    1  UNL1        0.0537
      2 C          11.8511   42.6781    7.1506 C.ar    1  UNL1        0.0528
      3 C          13.2468   42.6328    7.0639 C.ar    1  UNL1        0.1533
      4 C          13.9941   42.0933    8.1440 C.ar    1  UNL1        0.0881
      5 C          13.3007   41.5697    9.2463 C.ar    1  UNL1        0.0193
      6 C          11.9082   41.6065    9.3072 C.ar    1  UNL1        0.0162
      7 C          16.1817   43.2504    7.7479 C.2     1  UNL1        0.2320
      8 C          16.1279   43.7422    6.3299 C.3     1  UNL1        0.1095
      9 C          15.7055   45.2029    6.2956 C.3     1  UNL1        0.0129
     10 C          17.5091   43.6275    5.7133 C.3     1  UNL1        0.0129
     11 C          15.1749   42.9021    5.4921 C.3     1  UNL1        0.2138
     12 O          16.9367   43.8345    8.5734 O.2     1  UNL1       -0.2744
     13 O          13.8202   43.1023    5.8766 O.3     1  UNL1       -0.4737
     14 N          15.4348   42.0972    8.1695 N.am    1  UNL1       -0.2559
     15 C           8.9606   43.0449    9.2307 C.2     1  UNL1        0.2497
     16 O           9.5192   43.8627   10.0117 O.2     1  UNL1       -0.2698
     17 N           9.7443   42.2057    8.3682 N.am    1  UNL1       -0.2803
     18 H           9.2472   41.5876    7.7851 H       1  UNL1        0.1552
     19 C           5.3283   43.8623    8.5340 C.ar    1  UNL1        0.1756
     20 C           6.7299   43.9361    8.5717 C.ar    1  UNL1        0.0448
     21 C           7.4904   42.9492    9.2028 C.ar    1  UNL1        0.0599
     22 C           6.8386   41.8714    9.8060 C.ar    1  UNL1        0.0448
     23 C           5.4400   41.7720    9.7837 C.ar    1  UNL1        0.1756
     24 C           4.6738   42.7644    9.1486 C.ar    1  UNL1        0.2061
     25 C           3.1784   44.9756    7.9960 C.3     1  UNL1        0.2526
     26 O           4.5922   44.8663    7.8942 O.3     1  UNL1       -0.4683
     27 C           4.7290   40.5167   11.7978 C.3     1  UNL1        0.2526
     28 O           4.7869   40.6918   10.3884 O.3     1  UNL1       -0.4683
     29 C           2.5970   41.3599    9.1331 C.3     1  UNL1        0.2528
     30 O           3.2776   42.6063    9.1604 O.3     1  UNL1       -0.4654
     31 C          16.1526   40.9492    8.7285 C.3     1  UNL1        0.0983
     32 C          15.1987   39.8636    9.2218 C.3     1  UNL1        0.0219
     33 C          15.7551   39.1272   10.4281 C.3     1  UNL1        0.0017
     34 C          14.6667   38.9267   11.4652 C.3     1  UNL1        0.0001
     35 C          16.2797   37.7762    9.9910 C.3     1  UNL1        0.0001
@<TRIPOS>BOND
     1    25    26    1
     2    19    26    1
     3    20    21   ar
     4    21    15    1
     5    22    23   ar
     6    23    28    1
     7    27    28    1
     8    24    30    1
     9    24    19   ar
    10    29    30    1
    11    15    17   am
    12     2     3   ar
    13     3    13    1
    14     4     5   ar
    15     4    14    1
    16     6     1   ar
    17    31    14    1
    18    31    32    1
    19    32    33    1
    20    33    34    1
    21    33    35    1
    22     8     7    1
    23     8     9    1
    24     8    10    1
    25     8    11    1
    26    11    13    1
    27    17     1    1
    28    14     7   am
    29    19    20   ar
    30    21    22   ar
    31    23    24   ar
    32    15    16    2
    33     1     2   ar
    34     3     4   ar
    35     5     6   ar
    36     7    12    2
    37    17    18    1
@<TRIPOS>MOLECULE
MolPort-003-112-226 8959242 CSSS03437111492 IFPSXIOGDDLVEH-UHFFFAOYSA-N MCULE-9135975262 PubChem-40887138 ZINC000008959242 ZINC08959242
 35 37 0 0 0
SMALL
GASTEIGER

@<TRIPOS>ATOM
      1 C           7.7401   40.8251    7.7240 C.ar    1  UNL1        0.0537
      2 C           7.8120   39.7378    6.8457 C.ar    1  UNL1        0.0528
      3 C           9.0119   39.3882    6.2168 C.ar    1  UNL1        0.1533
      4 C          10.1732   40.1718    6.4486 C.ar    1  UNL1        0.0881
      5 C          10.0915   41.2450    7.3494 C.ar    1  UNL1        0.0193
      6 C           8.8911   41.5674    7.9815 C.ar    1  UNL1        0.0162
      7 C          11.4527   39.6366    4.3611 C.2     1  UNL1        0.2320
      8 C          10.8214   38.3911    3.8082 C.3     1  UNL1        0.1095
      9 C           9.8143   38.7479    2.7258 C.3     1  UNL1        0.0129
     10 C          11.9002   37.5209    3.1917 C.3     1  UNL1        0.0129
     11 C          10.1453   37.5830    4.9063 C.3     1  UNL1        0.2138
     12 O          12.0661   40.4145    3.5793 O.2     1  UNL1       -0.2744
     13 O           8.9914   38.2439    5.4112 O.3     1  UNL1       -0.4737
     14 N          11.4199   39.9321    5.7672 N.am    1  UNL1       -0.2559
     15 C           6.2737   41.2064    9.7963 C.2     1  UNL1        0.2497
     16 O           7.1777   40.8695   10.6086 O.2     1  UNL1       -0.2698
     17 N           6.5199   41.1926    8.3815 N.am    1  UNL1       -0.2803
     18 H           5.7719   41.4641    7.8018 H       1  UNL1        0.1552
     19 C           2.9631   43.0189   10.1156 C.ar    1  UNL1        0.1756
     20 C           4.2237   42.6136    9.6486 C.ar    1  UNL1        0.0448
     21 C           4.9525   41.6179   10.3028 C.ar    1  UNL1        0.0599
     22 C           4.4120   41.0182   11.4424 C.ar    1  UNL1        0.0448
     23 C           3.1553   41.4032   11.9312 C.ar    1  UNL1        0.1756
     24 C           2.4209   42.4048   11.2734 C.ar    1  UNL1        0.2061
     25 C           2.7926   44.7392    8.3373 C.3     1  UNL1        0.2526
     26 O           2.2555   44.0194    9.4394 O.3     1  UNL1       -0.4683
     27 C           1.4403   41.2831   13.7150 C.3     1  UNL1        0.2526
     28 O           2.6139   40.8021   13.0733 O.3     1  UNL1       -0.4683
     29 C           0.9632   43.3566   13.0776 C.3     1  UNL1        0.2528
     30 O           1.1685   42.7444   11.8125 O.3     1  UNL1       -0.4654
     31 C          12.6834   40.0912    6.4910 C.3     1  UNL1        0.0983
     32 C          12.4661   40.5934    7.9167 C.3     1  UNL1        0.0219
     33 C          13.6318   41.4371    8.4029 C.3     1  UNL1        0.0017
     34 C          14.6825   40.5538    9.0479 C.3     1  UNL1        0.0001
     35 C          14.2479   42.1640    7.2267 C.3     1  UNL1        0.0001
@<TRIPOS>BOND
     1    25    26    1
     2    19    26    1
     3    20    21   ar
     4    21    15    1
     5    22    23   ar
     6    23    28    1
     7    27    28    1
     8    24    30    1
     9    24    19   ar
    10    29    30    1
    11    15    17   am
    12     2     3   ar
    13     3    13    1
    14     4     5   ar
    15     4    14    1
    16     6     1   ar
    17    31    14    1
    18    31    32    1
    19    32    33    1
    20    33    34    1
    21    33    35    1
    22     8     7    1
    23     8     9    1
    24     8    10    1
    25     8    11    1
    26    11    13    1
    27    17     1    1
    28    14     7   am
    29    19    20   ar
    30    21    22   ar
    31    23    24   ar
    32    15    16    2
    33     1     2   ar
    34     3     4   ar
    35     5     6   ar
    36     7    12    2
    37    17    18    1
@<TRIPOS>MOLECULE
MolPort-003-112-226 8959242 CSSS03437111492 IFPSXIOGDDLVEH-UHFFFAOYSA-N MCULE-9135975262 PubChem-40887138 ZINC000008959242 ZINC08959242
 35 37 0 0 0
SMALL
GASTEIGER

@<TRIPOS>ATOM
      1 C           5.1246   41.8685   11.0052 C.ar    1  UNL1        0.0537
      2 C           5.0077   41.6000    9.6366 C.ar    1  UNL1        0.0528
      3 C           6.1104   41.1919    8.8782 C.ar    1  UNL1        0.1533
      4 C           7.3808   41.0789    9.5021 C.ar    1  UNL1        0.0881
      5 C           7.4781   41.3292   10.8797 C.ar    1  UNL1        0.0193
      6 C           6.3643   41.7171   11.6236 C.ar    1  UNL1        0.0162
      7 C           8.8513   41.3518    7.4910 C.2     1  UNL1        0.2320
      8 C           7.9652   41.0989    6.3051 C.3     1  UNL1        0.1095
      9 C           7.4661   42.4160    5.7311 C.3     1  UNL1        0.0129
     10 C           8.7643   40.3809    5.2341 C.3     1  UNL1        0.0129
     11 C           6.7871   40.2108    6.6782 C.3     1  UNL1        0.2138
     12 O           9.8830   42.0642    7.3472 O.2     1  UNL1       -0.2744
     13 O           5.8715   40.8833    7.5340 O.3     1  UNL1       -0.4737
     14 N           8.5790   40.7556    8.7701 N.am    1  UNL1       -0.2559
     15 C           2.8769   41.4777   12.1821 C.2     1  UNL1        0.2497
     16 O           2.7941   40.2728   11.8188 O.2     1  UNL1       -0.2698
     17 N           4.0033   42.2814   11.7979 N.am    1  UNL1       -0.2803
     18 H           4.0059   43.2145   12.1120 H       1  UNL1        0.1552
     19 C          -0.2327   41.8037   14.3201 C.ar    1  UNL1        0.1756
     20 C           0.7937   41.2613   13.5304 C.ar    1  UNL1        0.0448
     21 C           1.8083   42.0667   13.0083 C.ar    1  UNL1        0.0599
     22 C           1.7959   43.4365   13.2801 C.ar    1  UNL1        0.0448
     23 C           0.7832   44.0053   14.0658 C.ar    1  UNL1        0.1756
     24 C          -0.2380   43.1957   14.5920 C.ar    1  UNL1        0.2061
     25 C          -2.2038   40.3311   14.0087 C.3     1  UNL1        0.2526
     26 O          -1.2365   40.9721   14.8300 O.3     1  UNL1       -0.4683
     27 C           0.9905   45.9083   15.6384 C.3     1  UNL1        0.2526
     28 O           0.7709   45.3782   14.3380 O.3     1  UNL1       -0.4683
     29 C          -2.4663   44.3074   14.8831 C.3     1  UNL1        0.2528
     30 O          -1.2226   43.8260   15.3717 O.3     1  UNL1       -0.4654
     31 C           9.5875   39.8853    9.3792 C.3     1  UNL1        0.0983
     32 C          10.4696   40.6399   10.3714 C.3     1  UNL1        0.0219
     33 C          11.9235   40.6623    9.9324 C.3     1  UNL1        0.0017
     34 C          12.8084   40.0990   11.0279 C.3     1  UNL1        0.0001
     35 C          12.0819   39.8209    8.6841 C.3     1  UNL1        0.0001
@<TRIPOS>BOND
     1    25    26    1
     2    19    26    1
     3    20    21   ar
     4    21    15    1
     5    22    23   ar
     6    23    28    1
     7    27    28    1
     8    24    30    1
     9    24    19   ar
    10    29    30    1
    11    15    17   am
    12     2     3   ar
    13     3    13    1
    14     4     5   ar
    15     4    14    1
    16     6     1   ar
    17    31    14    1
    18    31    32    1
    19    32    33    1
    20    33    34    1
    21    33    35    1
    22     8     7    1
    23     8     9    1
    24     8    10    1
    25     8    11    1
    26    11    13    1
    27    17     1    1
    28    14     7   am
    29    19    20   ar
    30    21    22   ar
    31    23    24   ar
    32    15    16    2
    33     1     2   ar
    34     3     4   ar
    35     5     6   ar
    36     7    12    2
    37    17    18    1
@<TRIPOS>MOLECULE
MolPort-003-112-226 8959242 CSSS03437111492 IFPSXIOGDDLVEH-UHFFFAOYSA-N MCULE-9135975262 PubChem-40887138 ZINC000008959242 ZINC08959242
 35 37 0 0 0
SMALL
GASTEIGER

@<TRIPOS>ATOM
      1 C           4.3909   41.3874   10.9796 C.ar    1  UNL1        0.0537
      2 C           5.5056   42.2143   11.1603 C.ar    1  UNL1        0.0528
      3 C           6.6193   42.1291   10.3176 C.ar    1  UNL1        0.1533
      4 C           6.6330   41.1622    9.2778 C.ar    1  UNL1        0.0881
      5 C           5.4989   40.3558    9.0944 C.ar    1  UNL1        0.0193
      6 C           4.3902   40.4675    9.9327 C.ar    1  UNL1        0.0162
      7 C           9.1091   40.9232    8.9723 C.2     1  UNL1        0.2320
      8 C           9.7151   42.1349    9.6204 C.3     1  UNL1        0.1095
      9 C          10.1722   41.8028   11.0325 C.3     1  UNL1        0.0129
     10 C          10.9235   42.5745    8.8158 C.3     1  UNL1        0.0129
     11 C           8.7299   43.2945    9.6484 C.3     1  UNL1        0.2138
     12 O           9.8019   39.8745    8.8597 O.2     1  UNL1       -0.2744
     13 O           7.6516   43.0471   10.5423 O.3     1  UNL1       -0.4737
     14 N           7.7784   40.9506    8.4298 N.am    1  UNL1       -0.2559
     15 C           2.7411   42.6351   12.5000 C.2     1  UNL1        0.2497
     16 O           3.3279   43.7447   12.3770 O.2     1  UNL1       -0.2698
     17 N           3.2392   41.4665   11.8301 N.am    1  UNL1       -0.2803
     18 H           2.7368   40.6314   11.9697 H       1  UNL1        0.1552
     19 C           0.3352   43.1020   15.3879 C.ar    1  UNL1        0.1756
     20 C           1.4769   43.1838   14.5748 C.ar    1  UNL1        0.0448
     21 C           1.5336   42.5362   13.3387 C.ar    1  UNL1        0.0599
     22 C           0.4308   41.7947   12.9091 C.ar    1  UNL1        0.0448
     23 C          -0.7225   41.6957   13.7005 C.ar    1  UNL1        0.1756
     24 C          -0.7807   42.3473   14.9444 C.ar    1  UNL1        0.2061
     25 C           1.2166   43.4740   17.6760 C.3     1  UNL1        0.2526
     26 O           0.3069   43.7616   16.6221 O.3     1  UNL1       -0.4683
     27 C          -2.4675   41.1758   12.0205 C.3     1  UNL1        0.2526
     28 O          -1.8276   40.9524   13.2698 O.3     1  UNL1       -0.4683
     29 C          -2.4502   43.1544   16.6318 C.3     1  UNL1        0.2528
     30 O          -1.9646   42.2097   15.6889 O.3     1  UNL1       -0.4654
     31 C           7.5830   40.6567    7.0082 C.3     1  UNL1        0.0983
     32 C           8.8398   40.9390    6.1880 C.3     1  UNL1        0.0219
     33 C           9.4885   39.6597    5.6886 C.3     1  UNL1        0.0017
     34 C           9.4345   39.6037    4.1739 C.3     1  UNL1        0.0001
     35 C          10.9342   39.6245    6.1358 C.3     1  UNL1        0.0001
@<TRIPOS>BOND
     1    25    26    1
     2    19    26    1
     3    20    21   ar
     4    21    15    1
     5    22    23   ar
     6    23    28    1
     7    27    28    1
     8    24    30    1
     9    24    19   ar
    10    29    30    1
    11    15    17   am
    12     2     3   ar
    13     3    13    1
    14     4     5   ar
    15     4    14    1
    16     6     1   ar
    17    31    14    1
    18    31    32    1
    19    32    33    1
    20    33    34    1
    21    33    35    1
    22     8     7    1
    23     8     9    1
    24     8    10    1
    25     8    11    1
    26    11    13    1
    27    17     1    1
    28    14     7   am
    29    19    20   ar
    30    21    22   ar
    31    23    24   ar
    32    15    16    2
    33     1     2   ar
    34     3     4   ar
    35     5     6   ar
    36     7    12    2
    37    17    18    1
@<TRIPOS>MOLECULE
MolPort-003-112-226 8959242 CSSS03437111492 IFPSXIOGDDLVEH-UHFFFAOYSA-N MCULE-9135975262 PubChem-40887138 ZINC000008959242 ZINC08959242
 35 37 0 0 0
SMALL
GASTEIGER

@<TRIPOS>ATOM
      1 C           4.6548   42.1168   10.8732 C.ar    1  UNL1        0.0537
      2 C           4.6112   41.6525    9.5536 C.ar    1  UNL1        0.0528
      3 C           5.7734   41.2565    8.8826 C.ar    1  UNL1        0.1533
      4 C           7.0267   41.3581    9.5421 C.ar    1  UNL1        0.0881
      5 C           7.0522   41.8037   10.8728 C.ar    1  UNL1        0.0193
      6 C           5.8815   42.1766   11.5320 C.ar    1  UNL1        0.0162
      7 C           8.5320   41.4980    7.5431 C.2     1  UNL1        0.2320
      8 C           7.7155   40.9971    6.3864 C.3     1  UNL1        0.1095
      9 C           7.1118   42.1663    5.6235 C.3     1  UNL1        0.0129
     10 C           8.6162   40.2225    5.4432 C.3     1  UNL1        0.0129
     11 C           6.6163   40.0552    6.8560 C.3     1  UNL1        0.2138
     12 O           9.4946   42.2836    7.3222 O.2     1  UNL1       -0.2744
     13 O           5.6115   40.7439    7.5903 O.3     1  UNL1       -0.4737
     14 N           8.2748   41.0589    8.8872 N.am    1  UNL1       -0.2559
     15 C           2.6205   41.6876   12.3790 C.2     1  UNL1        0.2497
     16 O           2.8736   40.4605   12.5234 O.2     1  UNL1       -0.2698
     17 N           3.4725   42.5203   11.5771 N.am    1  UNL1       -0.2803
     18 H           3.2179   43.4684   11.5028 H       1  UNL1        0.1552
     19 C           0.3851   44.1317   14.2164 C.ar    1  UNL1        0.1756
     20 C           1.4993   43.5569   13.5844 C.ar    1  UNL1        0.0448
     21 C           1.4400   42.2726   13.0388 C.ar    1  UNL1        0.0599
     22 C           0.2472   41.5516   13.1271 C.ar    1  UNL1        0.0448
     23 C          -0.8813   42.1007   13.7527 C.ar    1  UNL1        0.1756
     24 C          -0.8227   43.3931   14.3017 C.ar    1  UNL1        0.2061
     25 C          -0.4242   46.4680   14.4105 C.3     1  UNL1        0.2526
     26 O           0.4740   45.4209   14.7541 O.3     1  UNL1       -0.4683
     27 C          -2.1356   40.0412   14.3208 C.3     1  UNL1        0.2526
     28 O          -2.0766   41.3779   13.8412 O.3     1  UNL1       -0.4683
     29 C          -2.3254   43.7144   16.2828 C.3     1  UNL1        0.2528
     30 O          -1.9874   43.8864   14.9140 O.3     1  UNL1       -0.4654
     31 C           9.3410   40.3859    9.6328 C.3     1  UNL1        0.0983
     32 C          10.2377   39.5518    8.7206 C.3     1  UNL1        0.0219
     33 C          11.5036   39.1020    9.4293 C.3     1  UNL1        0.0017
     34 C          12.6064   38.8506    8.4189 C.3     1  UNL1        0.0001
     35 C          11.9485   40.1823   10.3918 C.3     1  UNL1        0.0001
@<TRIPOS>BOND
     1    25    26    1
     2    19    26    1
     3    20    21   ar
     4    21    15    1
     5    22    23   ar
     6    23    28    1
     7    27    28    1
     8    24    30    1
     9    24    19   ar
    10    29    30    1
    11    15    17   am
    12     2     3   ar
    13     3    13    1
    14     4     5   ar
    15     4    14    1
    16     6     1   ar
    17    31    14    1
    18    31    32    1
    19    32    33    1
    20    33    34    1
    21    33    35    1
    22     8     7    1
    23     8     9    1
    24     8    10    1
    25     8    11    1
    26    11    13    1
    27    17     1    1
    28    14     7   am
    29    19    20   ar
    30    21    22   ar
    31    23    24   ar
    32    15    16    2
    33     1     2   ar
    34     3     4   ar
    35     5     6   ar
    36     7    12    2
    37    17    18    1
@<TRIPOS>MOLECULE
MolPort-003-112-226 8959242 CSSS03437111492 IFPSXIOGDDLVEH-UHFFFAOYSA-N MCULE-9135975262 PubChem-40887138 ZINC000008959242 ZINC08959242
 35 37 0 0 0
SMALL
GASTEIGER

@<TRIPOS>ATOM
      1 C          11.9922   41.5262    8.2204 C.ar    1  UNL1        0.0537
      2 C          12.5457   42.2155    7.1354 C.ar    1  UNL1        0.0528
      3 C          13.9291   42.3814    7.0077 C.ar    1  UNL1        0.1533
      4 C          14.7876   41.8684    8.0157 C.ar    1  UNL1        0.0881
      5 C          14.2198   41.1596    9.0858 C.ar    1  UNL1        0.0193
      6 C          12.8397   40.9880    9.1870 C.ar    1  UNL1        0.0162
      7 C          16.7704   43.3605    7.6645 C.2     1  UNL1        0.2320
      8 C          16.5913   43.9556    6.2972 C.3     1  UNL1        0.1095
      9 C          15.9637   45.3370    6.4030 C.3     1  UNL1        0.0129
     10 C          17.9495   44.0949    5.6361 C.3     1  UNL1        0.0129
     11 C          15.7359   43.0583    5.4146 C.3     1  UNL1        0.2138
     12 O          17.4661   43.9776    8.5176 O.2     1  UNL1       -0.2744
     13 O          14.3826   43.0265    5.8514 O.3     1  UNL1       -0.4737
     14 N          16.2128   42.0798    8.0028 N.am    1  UNL1       -0.2559
     15 C           9.7206   41.9633    9.3335 C.2     1  UNL1        0.2497
     16 O          10.1914   42.7654   10.1853 O.2     1  UNL1       -0.2698
     17 N          10.5773   41.3418    8.3628 N.am    1  UNL1       -0.2803
     18 H          10.1478   40.7240    7.7279 H       1  UNL1        0.1552
     19 C           6.1486   41.5353   10.5186 C.ar    1  UNL1        0.1756
     20 C           7.5237   41.8181   10.4984 C.ar    1  UNL1        0.0448
     21 C           8.2785   41.6605    9.3339 C.ar    1  UNL1        0.0599
     22 C           7.6478   41.2126    8.1711 C.ar    1  UNL1        0.0448
     23 C           6.2759   40.9226    8.1624 C.ar    1  UNL1        0.1756
     24 C           5.5154   41.0812    9.3336 C.ar    1  UNL1        0.2061
     25 C           4.1008   41.1964   11.8760 C.3     1  UNL1        0.2526
     26 O           5.4176   41.7027   11.7005 O.3     1  UNL1       -0.4683
     27 C           6.2843   39.6305    6.0486 C.3     1  UNL1        0.2526
     28 O           5.6440   40.4736    6.9969 O.3     1  UNL1       -0.4683
     29 C           3.1078   41.7218    9.0518 C.3     1  UNL1        0.2528
     30 O           4.1460   40.7749    9.2590 O.3     1  UNL1       -0.4654
     31 C          17.1085   41.0061    8.4392 C.3     1  UNL1        0.0983
     32 C          17.0202   40.7644    9.9444 C.3     1  UNL1        0.0219
     33 C          17.1716   39.2933   10.2909 C.3     1  UNL1        0.0017
     34 C          18.5931   39.0049   10.7343 C.3     1  UNL1        0.0001
     35 C          16.2200   38.9438   11.4150 C.3     1  UNL1        0.0001
@<TRIPOS>BOND
     1    25    26    1
     2    19    26    1
     3    20    21   ar
     4    21    15    1
     5    22    23   ar
     6    23    28    1
     7    27    28    1
     8    24    30    1
     9    24    19   ar
    10    29    30    1
    11    15    17   am
    12     2     3   ar
    13     3    13    1
    14     4     5   ar
    15     4    14    1
    16     6     1   ar
    17    31    14    1
    18    31    32    1
    19    32    33    1
    20    33    34    1
    21    33    35    1
    22     8     7    1
    23     8     9    1
    24     8    10    1
    25     8    11    1
    26    11    13    1
    27    17     1    1
    28    14     7   am
    29    19    20   ar
    30    21    22   ar
    31    23    24   ar
    32    15    16    2
    33     1     2   ar
    34     3     4   ar
    35     5     6   ar
    36     7    12    2
    37    17    18    1
