@<TRIPOS>MOLECULE
MolPort-010-903-894 ChemDiv-M535-1311 MCULE-6417432776 PubChem-53146007 ZINC000065165996 ZINC65165996
 33 36 0 0 0
SMALL
GASTEIGER

@<TRIPOS>ATOM
      1 C          12.2564   41.5599    7.7527 C.ar    1  UNL1        0.0670
      2 C          13.2940   40.9881    8.5283 C.ar    1  UNL1        0.0535
      3 C          14.5504   41.6119    8.5557 C.ar    1  UNL1        0.0293
      4 C          14.7980   42.7715    7.8178 C.ar    1  UNL1        0.0515
      5 C          13.7768   43.3091    7.0258 C.ar    1  UNL1        0.0149
      6 C          12.5180   42.7083    6.9956 C.ar    1  UNL1        0.0070
      7 C           9.3216   38.5837    4.6256 C.3     1  UNL1        0.1025
      8 C           8.4191   39.7210    5.1111 C.3     1  UNL1        0.0327
      9 C           8.8606   40.2000    6.4920 C.3     1  UNL1        0.0943
     10 C          11.1153   40.2657    5.3305 C.3     1  UNL1        0.0943
     11 C          10.8255   38.8769    4.7636 C.3     1  UNL1        0.0327
     12 C          10.8855   41.0119    7.7293 C.2     1  UNL1        0.2502
     13 O          10.2413   40.9471    8.8118 O.2     1  UNL1       -0.2699
     14 N          10.2943   40.5095    6.5182 N.am    1  UNL1       -0.2760
     15 C           8.9855   38.2124    3.2204 C.2     1  UNL1        0.3165
     16 O           7.9129   38.6218    2.6953 O.2     1  UNL1       -0.2501
     17 O           9.8694   37.4081    2.5006 O.3     1  UNL1       -0.4485
     18 C          10.1654   35.2491    3.4988 C.3     1  UNL1        0.0513
     19 C          10.8164   36.5704    3.1464 C.3     1  UNL1        0.2086
     20 C          12.8979   39.8156   10.6871 C.3     1  UNL1        0.0908
     21 C          13.9248   38.9761   11.4338 C.3     1  UNL1        0.0214
     22 C          13.4880   37.5224   11.5255 C.3     1  UNL1        0.0018
     23 C          13.5402   36.8319   10.1718 C.3     1  UNL1        0.0018
     24 C          12.4234   37.3379    9.2750 C.3     1  UNL1        0.0214
     25 C          12.8892   38.5351    8.4522 C.3     1  UNL1        0.0908
     26 N          13.1163   39.7541    9.2404 N.pl3   1  UNL1       -0.3073
     27 C          16.8655   43.8768    6.7777 C.2     1  UNL1        0.2256
     28 O          16.3871   43.8997    5.6115 O.2     1  UNL1       -0.2748
     29 N          16.1030   43.3625    7.8791 N.am    1  UNL1       -0.2839
     30 H          16.5191   43.4215    8.7694 H       1  UNL1        0.1549
     31 C          18.2248   44.4447    7.0262 C.3     1  UNL1        0.0768
     32 C          18.5055   44.4836    8.5177 C.3     1  UNL1        0.0096
     33 C          19.1155   43.3945    7.6653 C.3     1  UNL1        0.0096
@<TRIPOS>BOND
     1    18    19    1
     2    19    17    1
     3    15    17    1
     4     7    15    1
     5     7     8    1
     6     8     9    1
     7     9    14    1
     8    10    14    1
     9    10    11    1
    10    11     7    1
    11    12     1    1
    12     1     2   ar
    13     2    26    1
    14     3     4   ar
    15     4    29    1
    16    31    27    1
    17    31    32    1
    18    32    33    1
    19    33    31    1
    20     5     6   ar
    21    20    26    1
    22    20    21    1
    23    21    22    1
    24    22    23    1
    25    23    24    1
    26    24    25    1
    27    25    26    1
    28    14    12   am
    29    29    27   am
    30    15    16    2
    31    12    13    2
    32     2     3   ar
    33     4     5   ar
    34    27    28    2
    35     6     1   ar
    36    29    30    1
@<TRIPOS>MOLECULE
MolPort-010-903-894 ChemDiv-M535-1311 MCULE-6417432776 PubChem-53146007 ZINC000065165996 ZINC65165996
 33 36 0 0 0
SMALL
GASTEIGER

@<TRIPOS>ATOM
      1 C          15.0238   38.6546   10.1425 C.ar    1  UNL1        0.0670
      2 C          14.2875   39.6735    9.4907 C.ar    1  UNL1        0.0535
      3 C          14.9654   40.7992    8.9991 C.ar    1  UNL1        0.0293
      4 C          16.3457   40.9389    9.1593 C.ar    1  UNL1        0.0515
      5 C          17.0597   39.9436    9.8366 C.ar    1  UNL1        0.0149
      6 C          16.4035   38.8120   10.3219 C.ar    1  UNL1        0.0070
      7 C          14.9519   33.6055    8.8190 C.3     1  UNL1        0.1025
      8 C          13.5113   33.9783    9.1786 C.3     1  UNL1        0.0327
      9 C          13.4931   35.1018   10.2124 C.3     1  UNL1        0.0943
     10 C          15.0998   36.1449    8.5487 C.3     1  UNL1        0.0943
     11 C          15.8451   34.8128    8.4851 C.3     1  UNL1        0.0327
     12 C          14.4011   37.4039   10.6202 C.2     1  UNL1        0.2502
     13 O          13.9674   37.3576   11.8037 O.2     1  UNL1       -0.2699
     14 N          14.3250   36.2331    9.7880 N.am    1  UNL1       -0.2760
     15 C          14.9732   32.6124    7.7060 C.2     1  UNL1        0.3165
     16 O          15.8840   32.6575    6.8330 O.2     1  UNL1       -0.2501
     17 O          13.9749   31.6400    7.6445 O.3     1  UNL1       -0.4485
     18 C          12.2873   31.1836    6.0046 C.3     1  UNL1        0.0513
     19 C          13.7081   30.9135    6.4543 C.3     1  UNL1        0.2086
     20 C          12.2833   38.7492    8.3414 C.3     1  UNL1        0.0908
     21 C          11.3611   39.5305    7.4162 C.3     1  UNL1        0.0214
     22 C           9.9550   39.6234    7.9877 C.3     1  UNL1        0.0018
     23 C           9.9022   40.5258    9.2103 C.3     1  UNL1        0.0018
     24 C          10.5742   39.8534   10.3952 C.3     1  UNL1        0.0214
     25 C          12.0566   40.2091   10.4514 C.3     1  UNL1        0.0908
     26 N          12.8578   39.6175    9.3712 N.pl3   1  UNL1       -0.3073
     27 C          16.4960   42.9676    7.5974 C.2     1  UNL1        0.2256
     28 O          15.3704   42.7654    7.0669 O.2     1  UNL1       -0.2748
     29 N          16.9847   42.1136    8.6418 N.am    1  UNL1       -0.2839
     30 H          17.8486   42.3597    9.0448 H       1  UNL1        0.1549
     31 C          17.3088   44.1466    7.1712 C.3     1  UNL1        0.0768
     32 C          17.7625   43.9707    5.7333 C.3     1  UNL1        0.0096
     33 C          16.6009   44.8848    6.0493 C.3     1  UNL1        0.0096
@<TRIPOS>BOND
     1    18    19    1
     2    19    17    1
     3    15    17    1
     4     7    15    1
     5     7     8    1
     6     8     9    1
     7     9    14    1
     8    10    14    1
     9    10    11    1
    10    11     7    1
    11    12     1    1
    12     1     2   ar
    13     2    26    1
    14     3     4   ar
    15     4    29    1
    16    31    27    1
    17    31    32    1
    18    32    33    1
    19    33    31    1
    20     5     6   ar
    21    20    26    1
    22    20    21    1
    23    21    22    1
    24    22    23    1
    25    23    24    1
    26    24    25    1
    27    25    26    1
    28    14    12   am
    29    29    27   am
    30    15    16    2
    31    12    13    2
    32     2     3   ar
    33     4     5   ar
    34    27    28    2
    35     6     1   ar
    36    29    30    1
@<TRIPOS>MOLECULE
MolPort-010-903-894 ChemDiv-M535-1311 MCULE-6417432776 PubChem-53146007 ZINC000065165996 ZINC65165996
 33 36 0 0 0
SMALL
GASTEIGER

@<TRIPOS>ATOM
      1 C          11.6457   37.1174   10.1127 C.ar    1  UNL1        0.0670
      2 C          12.6983   36.6283   10.9238 C.ar    1  UNL1        0.0535
      3 C          12.4204   35.6445   11.8849 C.ar    1  UNL1        0.0293
      4 C          11.1243   35.1571   12.0664 C.ar    1  UNL1        0.0515
      5 C          10.0840   35.6726   11.2846 C.ar    1  UNL1        0.0149
      6 C          10.3443   36.6428   10.3164 C.ar    1  UNL1        0.0070
      7 C          11.2893   42.2775    9.4085 C.3     1  UNL1        0.1025
      8 C          10.7052   41.6286    8.1509 C.3     1  UNL1        0.0327
      9 C          11.3631   40.2748    7.8944 C.3     1  UNL1        0.0943
     10 C          10.7751   39.9518   10.3413 C.3     1  UNL1        0.0943
     11 C          11.3467   41.3396   10.6266 C.3     1  UNL1        0.0327
     12 C          11.8651   38.0944    9.0275 C.2     1  UNL1        0.2502
     13 O          12.5827   37.7578    8.0463 O.2     1  UNL1       -0.2699
     14 N          11.3237   39.4255    9.0898 N.am    1  UNL1       -0.2760
     15 C          10.5497   43.5290    9.7434 C.2     1  UNL1        0.3165
     16 O          10.9990   44.6494    9.3740 O.2     1  UNL1       -0.2501
     17 O           9.3615   43.4419   10.4691 O.3     1  UNL1       -0.4485
     18 C           7.7918   43.9932    8.7436 C.3     1  UNL1        0.0513
     19 C           8.1419   43.0376    9.8652 C.3     1  UNL1        0.2086
     20 C          14.4593   38.1315   11.8355 C.3     1  UNL1        0.0908
     21 C          14.9490   39.4135   11.1771 C.3     1  UNL1        0.0214
     22 C          16.4160   39.3101   10.7904 C.3     1  UNL1        0.0018
     23 C          16.6277   38.3424    9.6368 C.3     1  UNL1        0.0018
     24 C          16.4243   36.9105   10.1016 C.3     1  UNL1        0.0214
     25 C          14.9706   36.4839    9.9227 C.3     1  UNL1        0.0908
     26 N          14.0317   37.1530   10.8335 N.pl3   1  UNL1       -0.3073
     27 C           9.8841   34.1709   14.0832 C.2     1  UNL1        0.2256
     28 O           9.0293   35.0962   14.1336 O.2     1  UNL1       -0.2748
     29 N          10.8979   34.1561   13.0679 N.am    1  UNL1       -0.2839
     30 H          11.5008   33.3778   13.0579 H       1  UNL1        0.1549
     31 C           9.8063   33.0439   15.0609 C.3     1  UNL1        0.0768
     32 C           9.6655   31.7254   14.3218 C.3     1  UNL1        0.0096
     33 C          11.0058   32.1288   14.8923 C.3     1  UNL1        0.0096
@<TRIPOS>BOND
     1    18    19    1
     2    19    17    1
     3    15    17    1
     4     7    15    1
     5     7     8    1
     6     8     9    1
     7     9    14    1
     8    10    14    1
     9    10    11    1
    10    11     7    1
    11    12     1    1
    12     1     2   ar
    13     2    26    1
    14     3     4   ar
    15     4    29    1
    16    31    27    1
    17    31    32    1
    18    32    33    1
    19    33    31    1
    20     5     6   ar
    21    20    26    1
    22    20    21    1
    23    21    22    1
    24    22    23    1
    25    23    24    1
    26    24    25    1
    27    25    26    1
    28    14    12   am
    29    29    27   am
    30    15    16    2
    31    12    13    2
    32     2     3   ar
    33     4     5   ar
    34    27    28    2
    35     6     1   ar
    36    29    30    1
@<TRIPOS>MOLECULE
MolPort-010-903-894 ChemDiv-M535-1311 MCULE-6417432776 PubChem-53146007 ZINC000065165996 ZINC65165996
 33 36 0 0 0
SMALL
GASTEIGER

@<TRIPOS>ATOM
      1 C          13.3148   40.8735    9.0437 C.ar    1  UNL1        0.0670
      2 C          14.6493   41.1597    8.6663 C.ar    1  UNL1        0.0535
      3 C          15.6874   40.3572    9.1631 C.ar    1  UNL1        0.0293
      4 C          15.4280   39.2980   10.0356 C.ar    1  UNL1        0.0515
      5 C          14.1095   39.0453   10.4314 C.ar    1  UNL1        0.0149
      6 C          13.0637   39.8259    9.9382 C.ar    1  UNL1        0.0070
      7 C           8.4486   42.0653   10.5099 C.3     1  UNL1        0.1025
      8 C           8.3733   41.6891    9.0278 C.3     1  UNL1        0.0327
      9 C           9.6890   42.0177    8.3264 C.3     1  UNL1        0.0943
     10 C          10.6258   40.7379   10.3067 C.3     1  UNL1        0.0943
     11 C           9.7124   41.5521   11.2215 C.3     1  UNL1        0.0327
     12 C          12.1585   41.6184    8.5068 C.2     1  UNL1        0.2502
     13 O          12.3544   42.4584    7.5864 O.2     1  UNL1       -0.2699
     14 N          10.8344   41.4437    9.0408 N.am    1  UNL1       -0.2760
     15 C           7.2214   41.6134   11.2276 C.2     1  UNL1        0.3165
     16 O           7.3201   40.9365   12.2886 O.2     1  UNL1       -0.2501
     17 O           5.9700   41.9470   10.7090 O.3     1  UNL1       -0.4485
     18 C           4.1045   40.4535   10.8964 C.3     1  UNL1        0.0513
     19 C           4.7709   41.7047   11.4296 C.3     1  UNL1        0.2086
     20 C          13.8955   42.9419    7.1019 C.3     1  UNL1        0.0908
     21 C          14.1937   42.9868    5.6099 C.3     1  UNL1        0.0214
     22 C          15.0427   44.1968    5.2527 C.3     1  UNL1        0.0018
     23 C          16.4609   44.0670    5.7853 C.3     1  UNL1        0.0018
     24 C          16.4771   44.2287    7.2956 C.3     1  UNL1        0.0214
     25 C          16.3136   42.8788    7.9871 C.3     1  UNL1        0.0908
     26 N          14.9780   42.2850    7.8375 N.pl3   1  UNL1       -0.3073
     27 C          17.9235   38.7599   10.2831 C.2     1  UNL1        0.2256
     28 O          18.3061   39.7785    9.6464 O.2     1  UNL1       -0.2748
     29 N          16.5290   38.5152   10.5165 N.am    1  UNL1       -0.2839
     30 H          16.3048   37.7281   11.0637 H       1  UNL1        0.1549
     31 C          18.9393   37.8231   10.8510 C.3     1  UNL1        0.0768
     32 C          18.4983   36.3868   10.6339 C.3     1  UNL1        0.0096
     33 C          19.5558   36.9926    9.7397 C.3     1  UNL1        0.0096
@<TRIPOS>BOND
     1    18    19    1
     2    19    17    1
     3    15    17    1
     4     7    15    1
     5     7     8    1
     6     8     9    1
     7     9    14    1
     8    10    14    1
     9    10    11    1
    10    11     7    1
    11    12     1    1
    12     1     2   ar
    13     2    26    1
    14     3     4   ar
    15     4    29    1
    16    31    27    1
    17    31    32    1
    18    32    33    1
    19    33    31    1
    20     5     6   ar
    21    20    26    1
    22    20    21    1
    23    21    22    1
    24    22    23    1
    25    23    24    1
    26    24    25    1
    27    25    26    1
    28    14    12   am
    29    29    27   am
    30    15    16    2
    31    12    13    2
    32     2     3   ar
    33     4     5   ar
    34    27    28    2
    35     6     1   ar
    36    29    30    1
@<TRIPOS>MOLECULE
MolPort-010-903-894 ChemDiv-M535-1311 MCULE-6417432776 PubChem-53146007 ZINC000065165996 ZINC65165996
 33 36 0 0 0
SMALL
GASTEIGER

@<TRIPOS>ATOM
      1 C          12.1432   41.3434    9.3333 C.ar    1  UNL1        0.0670
      2 C          13.2572   40.4914    9.1376 C.ar    1  UNL1        0.0535
      3 C          14.3511   40.9565    8.3922 C.ar    1  UNL1        0.0293
      4 C          14.3499   42.2334    7.8266 C.ar    1  UNL1        0.0515
      5 C          13.2293   43.0549    7.9951 C.ar    1  UNL1        0.0149
      6 C          12.1375   42.6130    8.7429 C.ar    1  UNL1        0.0070
      7 C           6.9363   41.3150    8.9635 C.3     1  UNL1        0.1025
      8 C           7.2665   41.8145   10.3725 C.3     1  UNL1        0.0327
      9 C           8.5875   41.2190   10.8537 C.3     1  UNL1        0.0943
     10 C           9.3548   42.0572    8.5853 C.3     1  UNL1        0.0943
     11 C           8.1044   41.4319    7.9692 C.3     1  UNL1        0.0327
     12 C          10.9861   40.9619   10.1675 C.2     1  UNL1        0.2502
     13 O          11.1716   40.1755   11.1361 O.2     1  UNL1       -0.2699
     14 N           9.6568   41.4244    9.8707 N.am    1  UNL1       -0.2760
     15 C           5.7245   42.0054    8.4341 C.2     1  UNL1        0.3165
     16 O           5.8379   42.8887    7.5393 O.2     1  UNL1       -0.2501
     17 O           4.4713   41.6629    8.9424 O.3     1  UNL1       -0.4485
     18 C           2.9532   42.0656   10.7532 C.3     1  UNL1        0.0513
     19 C           3.6006   42.6320    9.5066 C.3     1  UNL1        0.2086
     20 C          12.7208   38.0885    8.7761 C.3     1  UNL1        0.0908
     21 C          11.6318   37.3112    9.5019 C.3     1  UNL1        0.0214
     22 C          12.2210   36.1895   10.3427 C.3     1  UNL1        0.0018
     23 C          12.9844   36.7264   11.5430 C.3     1  UNL1        0.0018
     24 C          14.2860   37.3713   11.0986 C.3     1  UNL1        0.0214
     25 C          14.0870   38.8579   10.8197 C.3     1  UNL1        0.0908
     26 N          13.2753   39.1423    9.6285 N.pl3   1  UNL1       -0.3073
     27 C          15.5766   43.7925    6.2010 C.2     1  UNL1        0.2256
     28 O          14.6065   44.5885    6.0792 O.2     1  UNL1       -0.2748
     29 N          15.4930   42.6534    7.0696 N.am    1  UNL1       -0.2839
     30 H          16.3048   42.1030    7.1546 H       1  UNL1        0.1549
     31 C          16.8514   44.0699    5.4731 C.3     1  UNL1        0.0768
     32 C          17.9450   44.4306    6.4623 C.3     1  UNL1        0.0096
     33 C          17.9021   43.0448    5.8603 C.3     1  UNL1        0.0096
@<TRIPOS>BOND
     1    18    19    1
     2    19    17    1
     3    15    17    1
     4     7    15    1
     5     7     8    1
     6     8     9    1
     7     9    14    1
     8    10    14    1
     9    10    11    1
    10    11     7    1
    11    12     1    1
    12     1     2   ar
    13     2    26    1
    14     3     4   ar
    15     4    29    1
    16    31    27    1
    17    31    32    1
    18    32    33    1
    19    33    31    1
    20     5     6   ar
    21    20    26    1
    22    20    21    1
    23    21    22    1
    24    22    23    1
    25    23    24    1
    26    24    25    1
    27    25    26    1
    28    14    12   am
    29    29    27   am
    30    15    16    2
    31    12    13    2
    32     2     3   ar
    33     4     5   ar
    34    27    28    2
    35     6     1   ar
    36    29    30    1
@<TRIPOS>MOLECULE
MolPort-010-903-894 ChemDiv-M535-1311 MCULE-6417432776 PubChem-53146007 ZINC000065165996 ZINC65165996
 33 36 0 0 0
SMALL
GASTEIGER

@<TRIPOS>ATOM
      1 C          10.7975   41.7256    8.4960 C.ar    1  UNL1        0.0670
      2 C          11.3576   41.3598    7.2480 C.ar    1  UNL1        0.0535
      3 C          12.5686   41.9426    6.8449 C.ar    1  UNL1        0.0293
      4 C          13.2167   42.8880    7.6427 C.ar    1  UNL1        0.0515
      5 C          12.6369   43.2700    8.8581 C.ar    1  UNL1        0.0149
      6 C          11.4391   42.6923    9.2799 C.ar    1  UNL1        0.0070
      7 C           5.6726   42.7149    8.5812 C.3     1  UNL1        0.1025
      8 C           6.0407   42.2215    9.9830 C.3     1  UNL1        0.0327
      9 C           7.2284   41.2643    9.9170 C.3     1  UNL1        0.0943
     10 C           8.1915   43.1580    8.5299 C.3     1  UNL1        0.0943
     11 C           6.8724   43.2206    7.7617 C.3     1  UNL1        0.0327
     12 C           9.5689   41.1045    9.0299 C.2     1  UNL1        0.2502
     13 O           9.5914   39.8795    9.3300 O.2     1  UNL1       -0.2699
     14 N           8.3453   41.8482    9.1663 N.am    1  UNL1       -0.2760
     15 C           4.6099   43.7591    8.6562 C.2     1  UNL1        0.3165
     16 O           4.8815   44.9612    8.3829 O.2     1  UNL1       -0.2501
     17 O           3.3190   43.3882    9.0333 O.3     1  UNL1       -0.4485
     18 C           2.7642   41.9623   10.8785 C.3     1  UNL1        0.0513
     19 C           2.9953   42.0512    9.3843 C.3     1  UNL1        0.2086
     20 C          11.4858   39.8063    5.3084 C.3     1  UNL1        0.0908
     21 C          10.8972   40.0699    3.9296 C.3     1  UNL1        0.0214
     22 C           9.8073   39.0643    3.5930 C.3     1  UNL1        0.0018
     23 C           8.5623   39.2785    4.4392 C.3     1  UNL1        0.0018
     24 C           8.8165   38.8508    5.8745 C.3     1  UNL1        0.0214
     25 C           9.3326   40.0213    6.7056 C.3     1  UNL1        0.0908
     26 N          10.6919   40.4544    6.3544 N.pl3   1  UNL1       -0.3073
     27 C          14.6349   44.2591    6.0036 C.2     1  UNL1        0.2256
     28 O          13.6553   44.5938    5.2840 O.2     1  UNL1       -0.2748
     29 N          14.4488   43.4549    7.1773 N.am    1  UNL1       -0.2839
     30 H          15.2504   43.2736    7.7193 H       1  UNL1        0.1549
     31 C          16.0024   44.7533    5.6603 C.3     1  UNL1        0.0768
     32 C          16.9570   44.4753    6.8075 C.3     1  UNL1        0.0096
     33 C          16.9706   43.5864    5.5850 C.3     1  UNL1        0.0096
@<TRIPOS>BOND
     1    18    19    1
     2    19    17    1
     3    15    17    1
     4     7    15    1
     5     7     8    1
     6     8     9    1
     7     9    14    1
     8    10    14    1
     9    10    11    1
    10    11     7    1
    11    12     1    1
    12     1     2   ar
    13     2    26    1
    14     3     4   ar
    15     4    29    1
    16    31    27    1
    17    31    32    1
    18    32    33    1
    19    33    31    1
    20     5     6   ar
    21    20    26    1
    22    20    21    1
    23    21    22    1
    24    22    23    1
    25    23    24    1
    26    24    25    1
    27    25    26    1
    28    14    12   am
    29    29    27   am
    30    15    16    2
    31    12    13    2
    32     2     3   ar
    33     4     5   ar
    34    27    28    2
    35     6     1   ar
    36    29    30    1
@<TRIPOS>MOLECULE
MolPort-010-903-894 ChemDiv-M535-1311 MCULE-6417432776 PubChem-53146007 ZINC000065165996 ZINC65165996
 33 36 0 0 0
SMALL
GASTEIGER

@<TRIPOS>ATOM
      1 C          11.3079   41.9472    7.8566 C.ar    1  UNL1        0.0670
      2 C          10.4274   40.8414    7.9407 C.ar    1  UNL1        0.0535
      3 C           9.9156   40.4685    9.1928 C.ar    1  UNL1        0.0293
      4 C          10.2750   41.1556   10.3543 C.ar    1  UNL1        0.0515
      5 C          11.1741   42.2246   10.2660 C.ar    1  UNL1        0.0149
      6 C          11.6839   42.6163    9.0277 C.ar    1  UNL1        0.0070
      7 C          15.9062   43.3446    5.8189 C.3     1  UNL1        0.1025
      8 C          14.8900   44.3880    5.3476 C.3     1  UNL1        0.0327
      9 C          13.4993   43.7671    5.2383 C.3     1  UNL1        0.0943
     10 C          14.0847   42.9742    7.5763 C.3     1  UNL1        0.0943
     11 C          15.4524   42.5419    7.0503 C.3     1  UNL1        0.0327
     12 C          11.8302   42.4529    6.5715 C.2     1  UNL1        0.2502
     13 O          11.1341   42.2954    5.5314 O.2     1  UNL1       -0.2699
     14 N          13.1255   43.0706    6.4741 N.am    1  UNL1       -0.2760
     15 C          17.2329   43.9805    6.0659 C.2     1  UNL1        0.3165
     16 O          17.4724   45.1395    5.6267 O.2     1  UNL1       -0.2501
     17 O          18.2000   43.2767    6.7841 O.3     1  UNL1       -0.4485
     18 C          17.6973   43.9634    9.0249 C.3     1  UNL1        0.0513
     19 C          17.9559   42.7947    8.0970 C.3     1  UNL1        0.2086
     20 C          11.0580   39.0560    6.3262 C.3     1  UNL1        0.0908
     21 C          11.4174   39.2790    4.8640 C.3     1  UNL1        0.0214
     22 C          10.4190   38.5993    3.9401 C.3     1  UNL1        0.0018
     23 C           9.0639   39.2885    3.9702 C.3     1  UNL1        0.0018
     24 C           8.3598   39.0165    5.2885 C.3     1  UNL1        0.0214
     25 C           8.6995   40.0914    6.3163 C.3     1  UNL1        0.0908
     26 N          10.0898   40.0519    6.7900 N.pl3   1  UNL1       -0.3073
     27 C           8.7731   41.4333   12.4147 C.2     1  UNL1        0.2256
     28 O           8.2762   42.5250   12.0262 O.2     1  UNL1       -0.2748
     29 N           9.7256   40.7264   11.6074 N.am    1  UNL1       -0.2839
     30 H          10.0340   39.8562   11.9493 H       1  UNL1        0.1549
     31 C           8.3217   40.8392   13.7090 C.3     1  UNL1        0.0768
     32 C           9.4894   40.7547   14.6755 C.3     1  UNL1        0.0096
     33 C           8.4672   41.8582   14.8248 C.3     1  UNL1        0.0096
@<TRIPOS>BOND
     1    18    19    1
     2    19    17    1
     3    15    17    1
     4     7    15    1
     5     7     8    1
     6     8     9    1
     7     9    14    1
     8    10    14    1
     9    10    11    1
    10    11     7    1
    11    12     1    1
    12     1     2   ar
    13     2    26    1
    14     3     4   ar
    15     4    29    1
    16    31    27    1
    17    31    32    1
    18    32    33    1
    19    33    31    1
    20     5     6   ar
    21    20    26    1
    22    20    21    1
    23    21    22    1
    24    22    23    1
    25    23    24    1
    26    24    25    1
    27    25    26    1
    28    14    12   am
    29    29    27   am
    30    15    16    2
    31    12    13    2
    32     2     3   ar
    33     4     5   ar
    34    27    28    2
    35     6     1   ar
    36    29    30    1
@<TRIPOS>MOLECULE
MolPort-010-903-894 ChemDiv-M535-1311 MCULE-6417432776 PubChem-53146007 ZINC000065165996 ZINC65165996
 33 36 0 0 0
SMALL
GASTEIGER

@<TRIPOS>ATOM
      1 C          13.0964   41.2263    9.3203 C.ar    1  UNL1        0.0670
      2 C          14.3546   41.1936    8.6714 C.ar    1  UNL1        0.0535
      3 C          15.3187   40.2666    9.0954 C.ar    1  UNL1        0.0293
      4 C          15.0649   39.3934   10.1554 C.ar    1  UNL1        0.0515
      5 C          13.8316   39.4577   10.8140 C.ar    1  UNL1        0.0149
      6 C          12.8571   40.3654   10.3983 C.ar    1  UNL1        0.0070
      7 C           8.0891   42.0805   10.5232 C.3     1  UNL1        0.1025
      8 C           8.1804   42.1270    8.9957 C.3     1  UNL1        0.0327
      9 C           9.5627   42.6054    8.5581 C.3     1  UNL1        0.0943
     10 C          10.2859   40.8106   10.1991 C.3     1  UNL1        0.0943
     11 C           9.2709   41.3633   11.1983 C.3     1  UNL1        0.0327
     12 C          12.0004   42.1160    8.8874 C.2     1  UNL1        0.2502
     13 O          12.2898   43.1715    8.2603 O.2     1  UNL1       -0.2699
     14 N          10.6270   41.8316    9.2065 N.am    1  UNL1       -0.2760
     15 C           6.7940   41.4771   10.9520 C.2     1  UNL1        0.3165
     16 O           6.6721   40.9949   12.1123 O.2     1  UNL1       -0.2501
     17 O           5.7263   41.4523   10.0544 O.3     1  UNL1       -0.4485
     18 C           3.4500   41.6762    9.3375 C.3     1  UNL1        0.0513
     19 C           4.5097   42.1354   10.3172 C.3     1  UNL1        0.2086
     20 C          16.0857   42.5723    7.5338 C.3     1  UNL1        0.0908
     21 C          16.1769   44.0908    7.5881 C.3     1  UNL1        0.0214
     22 C          15.9813   44.7053    6.2110 C.3     1  UNL1        0.0018
     23 C          14.5470   44.5601    5.7277 C.3     1  UNL1        0.0018
     24 C          14.2536   43.1146    5.3641 C.3     1  UNL1        0.0214
     25 C          13.7080   42.3528    6.5679 C.3     1  UNL1        0.0908
     26 N          14.6955   42.1226    7.6312 N.pl3   1  UNL1       -0.3073
     27 C          16.5568   37.3367    9.8055 C.2     1  UNL1        0.2256
     28 O          16.1110   37.0884    8.6526 O.2     1  UNL1       -0.2748
     29 N          16.0897   38.4712   10.5496 N.am    1  UNL1       -0.2839
     30 H          16.5172   38.6331   11.4216 H       1  UNL1        0.1549
     31 C          17.6274   36.4692   10.3826 C.3     1  UNL1        0.0768
     32 C          18.3531   35.7328    9.2710 C.3     1  UNL1        0.0096
     33 C          18.9896   36.9452    9.9111 C.3     1  UNL1        0.0096
@<TRIPOS>BOND
     1    18    19    1
     2    19    17    1
     3    15    17    1
     4     7    15    1
     5     7     8    1
     6     8     9    1
     7     9    14    1
     8    10    14    1
     9    10    11    1
    10    11     7    1
    11    12     1    1
    12     1     2   ar
    13     2    26    1
    14     3     4   ar
    15     4    29    1
    16    31    27    1
    17    31    32    1
    18    32    33    1
    19    33    31    1
    20     5     6   ar
    21    20    26    1
    22    20    21    1
    23    21    22    1
    24    22    23    1
    25    23    24    1
    26    24    25    1
    27    25    26    1
    28    14    12   am
    29    29    27   am
    30    15    16    2
    31    12    13    2
    32     2     3   ar
    33     4     5   ar
    34    27    28    2
    35     6     1   ar
    36    29    30    1
@<TRIPOS>MOLECULE
MolPort-010-903-894 ChemDiv-M535-1311 MCULE-6417432776 PubChem-53146007 ZINC000065165996 ZINC65165996
 33 36 0 0 0
SMALL
GASTEIGER

@<TRIPOS>ATOM
      1 C          12.2699   41.4290    9.0473 C.ar    1  UNL1        0.0670
      2 C          13.3998   40.5894    9.2005 C.ar    1  UNL1        0.0535
      3 C          14.6425   41.0191    8.7107 C.ar    1  UNL1        0.0293
      4 C          14.7774   42.2473    8.0599 C.ar    1  UNL1        0.0515
      5 C          13.6479   43.0543    7.8812 C.ar    1  UNL1        0.0149
      6 C          12.4067   42.6480    8.3720 C.ar    1  UNL1        0.0070
      7 C           7.5424   40.1188    7.2631 C.3     1  UNL1        0.1025
      8 C           7.3127   41.1065    8.4100 C.3     1  UNL1        0.0327
      9 C           8.4429   41.0096    9.4320 C.3     1  UNL1        0.0943
     10 C           9.8500   41.2205    7.3313 C.3     1  UNL1        0.0943
     11 C           8.9617   40.1670    6.6716 C.3     1  UNL1        0.0327
     12 C          10.9440   41.0883    9.6006 C.2     1  UNL1        0.2502
     13 O          10.8675   40.7190   10.8042 O.2     1  UNL1       -0.2699
     14 N           9.7568   41.1207    8.7892 N.am    1  UNL1       -0.2760
     15 C           6.5206   40.3120    6.1935 C.2     1  UNL1        0.3165
     16 O           5.6224   39.4442    6.0101 O.2     1  UNL1       -0.2501
     17 O           6.5747   41.4596    5.4021 O.3     1  UNL1       -0.4485
     18 C           7.2023   43.5824    6.3215 C.3     1  UNL1        0.0513
     19 C           6.0612   42.7048    5.8509 C.3     1  UNL1        0.2086
     20 C          13.5705   39.1483   11.2219 C.3     1  UNL1        0.0908
     21 C          14.6628   38.1200   11.4797 C.3     1  UNL1        0.0214
     22 C          14.0906   36.7130   11.5516 C.3     1  UNL1        0.0018
     23 C          13.6108   36.2297   10.1921 C.3     1  UNL1        0.0018
     24 C          12.3416   36.9597    9.7873 C.3     1  UNL1        0.0214
     25 C          12.6710   38.2203    8.9938 C.3     1  UNL1        0.0908
     26 N          13.2998   39.2837    9.7892 N.pl3   1  UNL1       -0.3073
     27 C          16.3745   43.7599    6.7410 C.2     1  UNL1        0.2256
     28 O          15.4765   44.5776    6.4025 O.2     1  UNL1       -0.2748
     29 N          16.0707   42.6322    7.5745 N.am    1  UNL1       -0.2839
     30 H          16.8289   42.0635    7.8408 H       1  UNL1        0.1549
     31 C          17.7860   43.9994    6.3140 C.3     1  UNL1        0.0768
     32 C          18.6800   44.1367    7.5332 C.3     1  UNL1        0.0096
     33 C          18.6634   42.8414    6.7543 C.3     1  UNL1        0.0096
@<TRIPOS>BOND
     1    18    19    1
     2    19    17    1
     3    15    17    1
     4     7    15    1
     5     7     8    1
     6     8     9    1
     7     9    14    1
     8    10    14    1
     9    10    11    1
    10    11     7    1
    11    12     1    1
    12     1     2   ar
    13     2    26    1
    14     3     4   ar
    15     4    29    1
    16    31    27    1
    17    31    32    1
    18    32    33    1
    19    33    31    1
    20     5     6   ar
    21    20    26    1
    22    20    21    1
    23    21    22    1
    24    22    23    1
    25    23    24    1
    26    24    25    1
    27    25    26    1
    28    14    12   am
    29    29    27   am
    30    15    16    2
    31    12    13    2
    32     2     3   ar
    33     4     5   ar
    34    27    28    2
    35     6     1   ar
    36    29    30    1
@<TRIPOS>MOLECULE
MolPort-010-903-894 ChemDiv-M535-1311 MCULE-6417432776 PubChem-53146007 ZINC000065165996 ZINC65165996
 33 36 0 0 0
SMALL
GASTEIGER

@<TRIPOS>ATOM
      1 C          10.9171   41.3053    7.2907 C.ar    1  UNL1        0.0670
      2 C          11.4630   42.0238    8.3820 C.ar    1  UNL1        0.0535
      3 C          12.7110   42.6477    8.2342 C.ar    1  UNL1        0.0293
      4 C          13.4286   42.5548    7.0397 C.ar    1  UNL1        0.0515
      5 C          12.8974   41.8124    5.9787 C.ar    1  UNL1        0.0149
      6 C          11.6525   41.1951    6.1043 C.ar    1  UNL1        0.0070
      7 C           5.9396   42.8437    7.6190 C.3     1  UNL1        0.1025
      8 C           6.0805   41.6354    8.5484 C.3     1  UNL1        0.0327
      9 C           7.1706   40.6951    8.0398 C.3     1  UNL1        0.0943
     10 C           8.4757   42.8691    7.9525 C.3     1  UNL1        0.0943
     11 C           7.2752   43.5227    7.2699 C.3     1  UNL1        0.0327
     12 C           9.5778   40.6853    7.3359 C.2     1  UNL1        0.2502
     13 O           9.4459   39.4996    6.9263 O.2     1  UNL1       -0.2699
     14 N           8.4232   41.4153    7.7863 N.am    1  UNL1       -0.2760
     15 C           4.9802   43.8335    8.1891 C.2     1  UNL1        0.3165
     16 O           5.3010   45.0515    8.2742 O.2     1  UNL1       -0.2501
     17 O           3.7305   43.3937    8.6263 O.3     1  UNL1       -0.4485
     18 C           2.7863   41.4888    9.7333 C.3     1  UNL1        0.0513
     19 C           3.5521   42.7852    9.8966 C.3     1  UNL1        0.2086
     20 C          11.0441   40.9963   10.6092 C.3     1  UNL1        0.0908
     21 C           9.7364   40.3540   11.0500 C.3     1  UNL1        0.0214
     22 C           9.1146   41.1101   12.2136 C.3     1  UNL1        0.0018
     23 C           8.5901   42.4714   11.7851 C.3     1  UNL1        0.0018
     24 C           9.7433   43.4189   11.5021 C.3     1  UNL1        0.0214
     25 C          10.1576   43.3458   10.0358 C.3     1  UNL1        0.0908
     26 N          10.8046   42.0823    9.6565 N.pl3   1  UNL1       -0.3073
     27 C          15.0313   44.3354    6.1236 C.2     1  UNL1        0.2256
     28 O          14.1528   44.9044    5.4208 O.2     1  UNL1       -0.2748
     29 N          14.7020   43.2077    6.9476 N.am    1  UNL1       -0.2839
     30 H          15.4254   42.8446    7.5079 H       1  UNL1        0.1549
     31 C          16.4234   44.8774    6.1417 C.3     1  UNL1        0.0768
     32 C          17.2833   44.0656    7.0936 C.3     1  UNL1        0.0096
     33 C          17.3904   43.8384    5.6030 C.3     1  UNL1        0.0096
@<TRIPOS>BOND
     1    18    19    1
     2    19    17    1
     3    15    17    1
     4     7    15    1
     5     7     8    1
     6     8     9    1
     7     9    14    1
     8    10    14    1
     9    10    11    1
    10    11     7    1
    11    12     1    1
    12     1     2   ar
    13     2    26    1
    14     3     4   ar
    15     4    29    1
    16    31    27    1
    17    31    32    1
    18    32    33    1
    19    33    31    1
    20     5     6   ar
    21    20    26    1
    22    20    21    1
    23    21    22    1
    24    22    23    1
    25    23    24    1
    26    24    25    1
    27    25    26    1
    28    14    12   am
    29    29    27   am
    30    15    16    2
    31    12    13    2
    32     2     3   ar
    33     4     5   ar
    34    27    28    2
    35     6     1   ar
    36    29    30    1
