@<TRIPOS>MOLECULE
MolPort-010-852-262 41076407 ChemDiv-G952-1684 MCULE-9578582837 PubChem-52095939 ZINC000041076407 ZINC41076407
 24 26 0 0 0
SMALL
GASTEIGER

@<TRIPOS>ATOM
      1 C          16.7312   40.3096    9.5769 C.2     1  UNL1        0.2721
      2 N          17.4592   41.4739    9.1707 N.am    1  UNL1       -0.2597
      3 O          15.5792   40.0690    9.1301 O.2     1  UNL1       -0.2707
      4 H          18.3403   41.6141    9.5867 H       1  UNL1        0.1569
      5 C          14.7203   43.9184    6.0204 C.ar    1  UNL1        0.1643
      6 C          16.6759   44.2491    6.7098 C.ar    1  UNL1        0.2195
      7 C          17.0313   42.4547    8.2184 C.ar    1  UNL1        0.1880
      8 N          15.1854   45.0490    5.4233 N.ar    1  UNL1       -0.1310
      9 N          16.4333   45.2624    5.8611 N.ar    1  UNL1       -0.1202
     10 N          15.7922   42.4084    7.6517 N.ar    1  UNL1       -0.1400
     11 N          15.6656   43.4321    6.8237 N.ar    1  UNL1       -0.1881
     12 S          17.9702   43.8063    7.6749 S.2     1  UNL1       -0.0111
     13 C          13.3632   43.3335    5.8289 C.3     1  UNL1        0.0677
     14 C          11.9495   41.3453    6.2354 C.3     1  UNL1        0.0005
     15 C          13.2378   42.0438    6.6149 C.3     1  UNL1        0.0080
     16 C          17.3516   39.3598   10.5430 C.3     1  UNL1        0.2897
     17 O          17.1170   38.0158   10.1342 O.3     1  UNL1       -0.4647
     18 C          15.8851   37.3664   10.2889 C.ar    1  UNL1        0.1497
     19 C          15.4668   36.4376    9.3223 C.ar    1  UNL1        0.0915
     20 C          14.2402   35.7809    9.4643 C.ar    1  UNL1        0.0145
     21 C          13.4255   36.0435   10.5683 C.ar    1  UNL1        0.0011
     22 C          13.8353   36.9643   11.5350 C.ar    1  UNL1        0.0032
     23 C          15.0598   37.6228   11.3968 C.ar    1  UNL1        0.0378
     24 CL         16.4644   36.0861    7.9225 Cl      1  UNL1       -0.0791
@<TRIPOS>BOND
     1    14    15    1
     2    15    13    1
     3    13     5    1
     4     6    12   ar
     5     7    12   ar
     6     7     2    1
     7    16     1    1
     8    16    17    1
     9    18    17    1
    10    19    24    1
    11    19    20   ar
    12    21    22   ar
    13    23    18   ar
    14     8     9   ar
    15     2     1   am
    16    11    10   ar
    17    11     5   ar
    18    11     6   ar
    19     5     8   ar
    20     6     9   ar
    21     7    10   ar
    22     1     3    2
    23    18    19   ar
    24    20    21   ar
    25    22    23   ar
    26     2     4    1
@<TRIPOS>MOLECULE
MolPort-010-852-262 41076407 ChemDiv-G952-1684 MCULE-9578582837 PubChem-52095939 ZINC000041076407 ZINC41076407
 24 26 0 0 0
SMALL
GASTEIGER

@<TRIPOS>ATOM
      1 C          11.5633   41.7259    6.4667 C.2     1  UNL1        0.2721
      2 N          12.5336   42.4910    5.7429 N.am    1  UNL1       -0.2597
      3 O          11.8038   41.2896    7.6227 O.2     1  UNL1       -0.2707
      4 H          12.2883   42.7706    4.8314 H       1  UNL1        0.1569
      5 C          16.7367   42.5086    8.1375 C.ar    1  UNL1        0.1643
      6 C          15.9297   43.8502    6.7383 C.ar    1  UNL1        0.2195
      7 C          13.8260   42.8895    6.2148 C.ar    1  UNL1        0.1880
      8 N          17.6482   43.4989    7.9382 N.ar    1  UNL1       -0.1310
      9 N          17.1357   44.3567    7.0459 N.ar    1  UNL1       -0.1202
     10 N          14.5120   42.1496    7.1318 N.ar    1  UNL1       -0.1400
     11 N          15.6681   42.7435    7.3771 N.ar    1  UNL1       -0.1881
     12 S          14.6929   44.3005    5.7037 S.2     1  UNL1       -0.0111
     13 C          16.9157   41.3358    9.0392 C.3     1  UNL1        0.0677
     14 C          15.7324   39.5496   10.2747 C.3     1  UNL1        0.0005
     15 C          15.6102   40.5769    9.1696 C.3     1  UNL1        0.0080
     16 C          10.2397   41.4457    5.8422 C.3     1  UNL1        0.2897
     17 O           9.2507   41.2492    6.8481 O.3     1  UNL1       -0.4647
     18 C           8.3023   42.2197    7.1973 C.ar    1  UNL1        0.1497
     19 C           8.2510   42.6925    8.5186 C.ar    1  UNL1        0.0915
     20 C           7.3104   43.6619    8.8812 C.ar    1  UNL1        0.0145
     21 C           6.4183   44.1663    7.9317 C.ar    1  UNL1        0.0011
     22 C           6.4644   43.7027    6.6152 C.ar    1  UNL1        0.0032
     23 C           7.4022   42.7340    6.2487 C.ar    1  UNL1        0.0378
     24 CL          9.3548   42.0788    9.7364 Cl      1  UNL1       -0.0791
@<TRIPOS>BOND
     1    14    15    1
     2    15    13    1
     3    13     5    1
     4     6    12   ar
     5     7    12   ar
     6     7     2    1
     7    16     1    1
     8    16    17    1
     9    18    17    1
    10    19    24    1
    11    19    20   ar
    12    21    22   ar
    13    23    18   ar
    14     8     9   ar
    15     2     1   am
    16    11    10   ar
    17    11     5   ar
    18    11     6   ar
    19     5     8   ar
    20     6     9   ar
    21     7    10   ar
    22     1     3    2
    23    18    19   ar
    24    20    21   ar
    25    22    23   ar
    26     2     4    1
@<TRIPOS>MOLECULE
MolPort-010-852-262 41076407 ChemDiv-G952-1684 MCULE-9578582837 PubChem-52095939 ZINC000041076407 ZINC41076407
 24 26 0 0 0
SMALL
GASTEIGER

@<TRIPOS>ATOM
      1 C          11.6154   41.5878    6.0244 C.2     1  UNL1        0.2721
      2 N          12.2504   42.8713    6.0260 N.am    1  UNL1       -0.2597
      3 O          12.2774   40.5298    6.1888 O.2     1  UNL1       -0.2707
      4 H          11.6743   43.6518    5.8584 H       1  UNL1        0.1569
      5 C          16.7276   42.6347    7.8426 C.ar    1  UNL1        0.1643
      6 C          15.9121   43.8119    6.3070 C.ar    1  UNL1        0.2195
      7 C          13.6415   43.1312    6.2476 C.ar    1  UNL1        0.1880
      8 N          17.7264   43.4081    7.3373 N.ar    1  UNL1       -0.1310
      9 N          17.2089   44.1605    6.3573 N.ar    1  UNL1       -0.1202
     10 N          14.3489   42.4689    7.2067 N.ar    1  UNL1       -0.1400
     11 N          15.5995   42.8991    7.1847 N.ar    1  UNL1       -0.1881
     12 S          14.6079   44.2627    5.3590 S.2     1  UNL1       -0.0111
     13 C          16.8766   41.6334    8.9362 C.3     1  UNL1        0.0677
     14 C          15.8623   39.6353    9.9830 C.3     1  UNL1        0.0005
     15 C          15.6096   40.8115    9.0641 C.3     1  UNL1        0.0080
     16 C          10.1404   41.5024    5.8306 C.3     1  UNL1        0.2897
     17 O           9.4652   41.7624    7.0574 O.3     1  UNL1       -0.4647
     18 C          10.0016   41.4520    8.3140 C.ar    1  UNL1        0.1497
     19 C          10.0928   40.1091    8.7144 C.ar    1  UNL1        0.0915
     20 C          10.6272   39.7844    9.9654 C.ar    1  UNL1        0.0145
     21 C          11.0745   40.7929   10.8224 C.ar    1  UNL1        0.0011
     22 C          10.9891   42.1307   10.4306 C.ar    1  UNL1        0.0032
     23 C          10.4556   42.4595    9.1819 C.ar    1  UNL1        0.0378
     24 CL          9.5382   38.8182    7.6638 Cl      1  UNL1       -0.0791
@<TRIPOS>BOND
     1    14    15    1
     2    15    13    1
     3    13     5    1
     4     6    12   ar
     5     7    12   ar
     6     7     2    1
     7    16     1    1
     8    16    17    1
     9    18    17    1
    10    19    24    1
    11    19    20   ar
    12    21    22   ar
    13    23    18   ar
    14     8     9   ar
    15     2     1   am
    16    11    10   ar
    17    11     5   ar
    18    11     6   ar
    19     5     8   ar
    20     6     9   ar
    21     7    10   ar
    22     1     3    2
    23    18    19   ar
    24    20    21   ar
    25    22    23   ar
    26     2     4    1
@<TRIPOS>MOLECULE
MolPort-010-852-262 41076407 ChemDiv-G952-1684 MCULE-9578582837 PubChem-52095939 ZINC000041076407 ZINC41076407
 24 26 0 0 0
SMALL
GASTEIGER

@<TRIPOS>ATOM
      1 C          12.3901   41.3188    8.0414 C.2     1  UNL1        0.2721
      2 N          13.2496   40.1784    8.1492 N.am    1  UNL1       -0.2597
      3 O          11.2170   41.2996    8.4975 O.2     1  UNL1       -0.2707
      4 H          14.1419   40.2549    7.7403 H       1  UNL1        0.1569
      5 C          13.4813   35.5542    9.5505 C.ar    1  UNL1        0.1643
      6 C          12.1302   37.0866   10.0356 C.ar    1  UNL1        0.2195
      7 C          12.9386   38.9375    8.7935 C.ar    1  UNL1        0.1880
      8 N          12.5742   35.0456   10.4278 N.ar    1  UNL1       -0.1310
      9 N          11.7106   36.0212   10.7389 N.ar    1  UNL1       -0.1202
     10 N          13.6977   37.8216    8.6007 N.ar    1  UNL1       -0.1400
     11 N          13.1893   36.8332    9.3177 N.ar    1  UNL1       -0.1881
     12 S          11.6199   38.6741    9.8868 S.2     1  UNL1       -0.0111
     13 C          14.6320   34.8096    8.9657 C.3     1  UNL1        0.0677
     14 C          16.6577   35.4299    7.6895 C.3     1  UNL1        0.0005
     15 C          15.8672   35.6877    8.9545 C.3     1  UNL1        0.0080
     16 C          12.8959   42.5556    7.3819 C.3     1  UNL1        0.2897
     17 O          14.1294   42.2933    6.7199 O.3     1  UNL1       -0.4647
     18 C          15.3682   42.7522    7.1867 C.ar    1  UNL1        0.1497
     19 C          15.8780   43.9711    6.7108 C.ar    1  UNL1        0.0915
     20 C          17.1127   44.4421    7.1688 C.ar    1  UNL1        0.0145
     21 C          17.8445   43.7046    8.1026 C.ar    1  UNL1        0.0011
     22 C          17.3432   42.4925    8.5823 C.ar    1  UNL1        0.0032
     23 C          16.1104   42.0180    8.1271 C.ar    1  UNL1        0.0378
     24 CL         14.9862   44.9211    5.5360 Cl      1  UNL1       -0.0791
@<TRIPOS>BOND
     1    14    15    1
     2    15    13    1
     3    13     5    1
     4     6    12   ar
     5     7    12   ar
     6     7     2    1
     7    16     1    1
     8    16    17    1
     9    18    17    1
    10    19    24    1
    11    19    20   ar
    12    21    22   ar
    13    23    18   ar
    14     8     9   ar
    15     2     1   am
    16    11    10   ar
    17    11     5   ar
    18    11     6   ar
    19     5     8   ar
    20     6     9   ar
    21     7    10   ar
    22     1     3    2
    23    18    19   ar
    24    20    21   ar
    25    22    23   ar
    26     2     4    1
@<TRIPOS>MOLECULE
MolPort-010-852-262 41076407 ChemDiv-G952-1684 MCULE-9578582837 PubChem-52095939 ZINC000041076407 ZINC41076407
 24 26 0 0 0
SMALL
GASTEIGER

@<TRIPOS>ATOM
      1 C          12.1364   41.9216    6.6331 C.2     1  UNL1        0.2721
      2 N          11.1384   41.6952    5.6315 N.am    1  UNL1       -0.2597
      3 O          11.9164   41.6657    7.8459 O.2     1  UNL1       -0.2707
      4 H          11.3695   41.9498    4.7090 H       1  UNL1        0.1569
      5 C           6.6343   41.0439    7.2716 C.ar    1  UNL1        0.1643
      6 C           7.7898   39.9398    5.9097 C.ar    1  UNL1        0.2195
      7 C           9.8368   41.1346    5.8398 C.ar    1  UNL1        0.1880
      8 N           5.8755   40.0043    6.8303 N.ar    1  UNL1       -0.1310
      9 N           6.6104   39.2978    5.9613 N.ar    1  UNL1       -0.1202
     10 N           8.9400   41.7062    6.6928 N.ar    1  UNL1       -0.1400
     11 N           7.8287   40.9890    6.6836 N.ar    1  UNL1       -0.1881
     12 S           9.2155   39.7164    5.0610 S.2     1  UNL1       -0.0111
     13 C           6.1921   42.0908    8.2354 C.3     1  UNL1        0.0677
     14 C           6.7160   44.4974    8.4611 C.3     1  UNL1        0.0005
     15 C           6.1351   43.4398    7.5469 C.3     1  UNL1        0.0080
     16 C          13.4645   42.4651    6.2319 C.3     1  UNL1        0.2897
     17 O          14.4847   41.9570    7.0860 O.3     1  UNL1       -0.4647
     18 C          15.6992   42.6172    7.3145 C.ar    1  UNL1        0.1497
     19 C          16.0930   43.6571    6.4569 C.ar    1  UNL1        0.0915
     20 C          17.3021   44.3258    6.6736 C.ar    1  UNL1        0.0145
     21 C          18.1235   43.9647    7.7443 C.ar    1  UNL1        0.0011
     22 C          17.7379   42.9330    8.6029 C.ar    1  UNL1        0.0032
     23 C          16.5310   42.2620    8.3898 C.ar    1  UNL1        0.0378
     24 CL         15.0864   44.1343    5.1015 Cl      1  UNL1       -0.0791
@<TRIPOS>BOND
     1    14    15    1
     2    15    13    1
     3    13     5    1
     4     6    12   ar
     5     7    12   ar
     6     7     2    1
     7    16     1    1
     8    16    17    1
     9    18    17    1
    10    19    24    1
    11    19    20   ar
    12    21    22   ar
    13    23    18   ar
    14     8     9   ar
    15     2     1   am
    16    11    10   ar
    17    11     5   ar
    18    11     6   ar
    19     5     8   ar
    20     6     9   ar
    21     7    10   ar
    22     1     3    2
    23    18    19   ar
    24    20    21   ar
    25    22    23   ar
    26     2     4    1
@<TRIPOS>MOLECULE
MolPort-010-852-262 41076407 ChemDiv-G952-1684 MCULE-9578582837 PubChem-52095939 ZINC000041076407 ZINC41076407
 24 26 0 0 0
SMALL
GASTEIGER

@<TRIPOS>ATOM
      1 C           9.7087   41.3840   10.0277 C.2     1  UNL1        0.2721
      2 N           8.5519   41.1312    9.2224 N.am    1  UNL1       -0.2597
      3 O           9.8505   42.4708   10.6468 O.2     1  UNL1       -0.2707
      4 H           8.5251   40.2729    8.7410 H       1  UNL1        0.1569
      5 C           4.0926   42.9829    9.5155 C.ar    1  UNL1        0.1643
      6 C           5.8289   43.6860    8.5670 C.ar    1  UNL1        0.2195
      7 C           7.4300   42.0046    9.0483 C.ar    1  UNL1        0.1880
      8 N           3.7941   44.1766    8.9348 N.ar    1  UNL1       -0.1310
      9 N           4.9002   44.6275    8.3285 N.ar    1  UNL1       -0.1202
     10 N           6.2105   41.7184    9.5863 N.ar    1  UNL1       -0.1400
     11 N           5.3708   42.6923    9.2769 N.ar    1  UNL1       -0.1881
     12 S           7.4483   43.5060    8.1826 S.2     1  UNL1       -0.0111
     13 C           3.1503   42.1485   10.3133 C.3     1  UNL1        0.0677
     14 C           3.9056   40.1316   11.5294 C.3     1  UNL1        0.0005
     15 C           3.5106   40.6828   10.1759 C.3     1  UNL1        0.0080
     16 C          10.7634   40.3374   10.1409 C.3     1  UNL1        0.2897
     17 O          12.0464   40.8991    9.8826 O.3     1  UNL1       -0.4647
     18 C          13.2485   40.2704   10.2330 C.ar    1  UNL1        0.1497
     19 C          14.3812   40.4423    9.4210 C.ar    1  UNL1        0.0915
     20 C          15.5881   39.8217    9.7591 C.ar    1  UNL1        0.0145
     21 C          15.6743   39.0293   10.9065 C.ar    1  UNL1        0.0011
     22 C          14.5528   38.8551   11.7203 C.ar    1  UNL1        0.0032
     23 C          13.3451   39.4730   11.3860 C.ar    1  UNL1        0.0378
     24 CL         14.3071   41.4286    7.9720 Cl      1  UNL1       -0.0791
@<TRIPOS>BOND
     1    14    15    1
     2    15    13    1
     3    13     5    1
     4     6    12   ar
     5     7    12   ar
     6     7     2    1
     7    16     1    1
     8    16    17    1
     9    18    17    1
    10    19    24    1
    11    19    20   ar
    12    21    22   ar
    13    23    18   ar
    14     8     9   ar
    15     2     1   am
    16    11    10   ar
    17    11     5   ar
    18    11     6   ar
    19     5     8   ar
    20     6     9   ar
    21     7    10   ar
    22     1     3    2
    23    18    19   ar
    24    20    21   ar
    25    22    23   ar
    26     2     4    1
@<TRIPOS>MOLECULE
MolPort-010-852-262 41076407 ChemDiv-G952-1684 MCULE-9578582837 PubChem-52095939 ZINC000041076407 ZINC41076407
 24 26 0 0 0
SMALL
GASTEIGER

@<TRIPOS>ATOM
      1 C          10.7039   41.2217    6.3840 C.2     1  UNL1        0.2721
      2 N          11.8250   42.0263    6.0013 N.am    1  UNL1       -0.2597
      3 O          10.7796   40.4057    7.3395 O.2     1  UNL1       -0.2707
      4 H          11.7021   42.6177    5.2239 H       1  UNL1        0.1569
      5 C          15.5556   40.8676    8.8545 C.ar    1  UNL1        0.1643
      6 C          15.3069   42.4091    7.4506 C.ar    1  UNL1        0.2195
      7 C          13.1075   42.0552    6.6385 C.ar    1  UNL1        0.1880
      8 N          16.7113   41.5845    8.8160 N.ar    1  UNL1       -0.1310
      9 N          16.5554   42.5691    7.9212 N.ar    1  UNL1       -0.1202
     10 N          13.4572   41.1376    7.5842 N.ar    1  UNL1       -0.1400
     11 N          14.6884   41.3965    7.9923 N.ar    1  UNL1       -0.1881
     12 S          14.3691   43.1971    6.3095 S.2     1  UNL1       -0.0111
     13 C          15.3087   39.6678    9.7031 C.3     1  UNL1        0.0677
     14 C          14.0823   38.8704   11.6974 C.3     1  UNL1        0.0005
     15 C          14.0952   39.8942   10.5824 C.3     1  UNL1        0.0080
     16 C           9.4194   41.3570    5.6408 C.3     1  UNL1        0.2897
     17 O           8.3168   41.1566    6.5196 O.3     1  UNL1       -0.4647
     18 C           7.5776   42.2058    7.0816 C.ar    1  UNL1        0.1497
     19 C           7.5665   42.3748    8.4757 C.ar    1  UNL1        0.0915
     20 C           6.8341   43.4184    9.0504 C.ar    1  UNL1        0.0145
     21 C           6.1114   44.2991    8.2419 C.ar    1  UNL1        0.0011
     22 C           6.1191   44.1390    6.8546 C.ar    1  UNL1        0.0032
     23 C           6.8491   43.0975    6.2763 C.ar    1  UNL1        0.0378
     24 CL          8.4610   41.2854    9.5203 Cl      1  UNL1       -0.0791
@<TRIPOS>BOND
     1    14    15    1
     2    15    13    1
     3    13     5    1
     4     6    12   ar
     5     7    12   ar
     6     7     2    1
     7    16     1    1
     8    16    17    1
     9    18    17    1
    10    19    24    1
    11    19    20   ar
    12    21    22   ar
    13    23    18   ar
    14     8     9   ar
    15     2     1   am
    16    11    10   ar
    17    11     5   ar
    18    11     6   ar
    19     5     8   ar
    20     6     9   ar
    21     7    10   ar
    22     1     3    2
    23    18    19   ar
    24    20    21   ar
    25    22    23   ar
    26     2     4    1
@<TRIPOS>MOLECULE
MolPort-010-852-262 41076407 ChemDiv-G952-1684 MCULE-9578582837 PubChem-52095939 ZINC000041076407 ZINC41076407
 24 26 0 0 0
SMALL
GASTEIGER

@<TRIPOS>ATOM
      1 C           9.3155   41.5692    7.1885 C.2     1  UNL1        0.2721
      2 N           8.5572   41.8768    8.3636 N.am    1  UNL1       -0.2597
      3 O           8.8987   41.8773    6.0413 O.2     1  UNL1       -0.2707
      4 H           8.9300   41.5759    9.2238 H       1  UNL1        0.1569
      5 C           3.8767   42.8689    9.0773 C.ar    1  UNL1        0.1643
      6 C           5.4557   44.0567    8.3669 C.ar    1  UNL1        0.2195
      7 C           7.3098   42.5792    8.4107 C.ar    1  UNL1        0.1880
      8 N           3.3814   44.1108    8.8256 N.ar    1  UNL1       -0.1310
      9 N           4.3867   44.8709    8.3719 N.ar    1  UNL1       -0.1202
     10 N           6.1651   41.9760    8.8403 N.ar    1  UNL1       -0.1400
     11 N           5.1769   42.8536    8.7864 N.ar    1  UNL1       -0.1881
     12 S           7.0716   44.2379    7.9683 S.2     1  UNL1       -0.0111
     13 C           3.0978   41.7190    9.6175 C.3     1  UNL1        0.0677
     14 C           4.0784   40.3173   11.4037 C.3     1  UNL1        0.0005
     15 C           3.3222   41.5957   11.1113 C.3     1  UNL1        0.0080
     16 C          10.6275   40.8761    7.3257 C.3     1  UNL1        0.2897
     17 O          11.4678   41.5842    8.2318 O.3     1  UNL1       -0.4647
     18 C          12.5052   40.9801    8.9543 C.ar    1  UNL1        0.1497
     19 C          12.2402   40.4376   10.2221 C.ar    1  UNL1        0.0915
     20 C          13.2657   39.8305   10.9541 C.ar    1  UNL1        0.0145
     21 C          14.5579   39.7588   10.4282 C.ar    1  UNL1        0.0011
     22 C          14.8290   40.2941    9.1672 C.ar    1  UNL1        0.0032
     23 C          13.8075   40.9018    8.4327 C.ar    1  UNL1        0.0378
     24 CL         10.6294   40.5127   10.9133 Cl      1  UNL1       -0.0791
@<TRIPOS>BOND
     1    14    15    1
     2    15    13    1
     3    13     5    1
     4     6    12   ar
     5     7    12   ar
     6     7     2    1
     7    16     1    1
     8    16    17    1
     9    18    17    1
    10    19    24    1
    11    19    20   ar
    12    21    22   ar
    13    23    18   ar
    14     8     9   ar
    15     2     1   am
    16    11    10   ar
    17    11     5   ar
    18    11     6   ar
    19     5     8   ar
    20     6     9   ar
    21     7    10   ar
    22     1     3    2
    23    18    19   ar
    24    20    21   ar
    25    22    23   ar
    26     2     4    1
@<TRIPOS>MOLECULE
MolPort-010-852-262 41076407 ChemDiv-G952-1684 MCULE-9578582837 PubChem-52095939 ZINC000041076407 ZINC41076407
 24 26 0 0 0
SMALL
GASTEIGER

@<TRIPOS>ATOM
      1 C          11.9400   41.9486    7.6078 C.2     1  UNL1        0.2721
      2 N          10.8133   41.0863    7.4140 N.am    1  UNL1       -0.2597
      3 O          11.8936   42.9153    8.4127 O.2     1  UNL1       -0.2707
      4 H          10.9114   40.3714    6.7443 H       1  UNL1        0.1569
      5 C           7.5214   41.7420   10.8975 C.ar    1  UNL1        0.1643
      6 C           7.3185   41.2027    8.8783 C.ar    1  UNL1        0.2195
      7 C           9.5575   41.1615    8.0990 C.ar    1  UNL1        0.1880
      8 N           6.1937   41.5972   10.6378 N.ar    1  UNL1       -0.1310
      9 N           6.0612   41.2529    9.3501 N.ar    1  UNL1       -0.1202
     10 N           9.4817   41.4928    9.4193 N.ar    1  UNL1       -0.1400
     11 N           8.2105   41.4932    9.7846 N.ar    1  UNL1       -0.1881
     12 S           8.0037   40.8763    7.3862 S.2     1  UNL1       -0.0111
     13 C           8.1090   42.1415   12.2074 C.3     1  UNL1        0.0677
     14 C           9.1565   41.1484   14.2157 C.3     1  UNL1        0.0005
     15 C           9.0445   41.0596   12.7086 C.3     1  UNL1        0.0080
     16 C          13.1952   41.6934    6.8464 C.3     1  UNL1        0.2897
     17 O          14.3033   41.6032    7.7366 O.3     1  UNL1       -0.4647
     18 C          15.4623   42.3796    7.6067 C.ar    1  UNL1        0.1497
     19 C          15.4585   43.4892    6.7460 C.ar    1  UNL1        0.0915
     20 C          16.6079   44.2739    6.6073 C.ar    1  UNL1        0.0145
     21 C          17.7648   43.9598    7.3247 C.ar    1  UNL1        0.0011
     22 C          17.7759   42.8592    8.1842 C.ar    1  UNL1        0.0032
     23 C          16.6300   42.0724    8.3254 C.ar    1  UNL1        0.0378
     24 CL         14.0236   43.9102    5.8285 Cl      1  UNL1       -0.0791
@<TRIPOS>BOND
     1    14    15    1
     2    15    13    1
     3    13     5    1
     4     6    12   ar
     5     7    12   ar
     6     7     2    1
     7    16     1    1
     8    16    17    1
     9    18    17    1
    10    19    24    1
    11    19    20   ar
    12    21    22   ar
    13    23    18   ar
    14     8     9   ar
    15     2     1   am
    16    11    10   ar
    17    11     5   ar
    18    11     6   ar
    19     5     8   ar
    20     6     9   ar
    21     7    10   ar
    22     1     3    2
    23    18    19   ar
    24    20    21   ar
    25    22    23   ar
    26     2     4    1
@<TRIPOS>MOLECULE
MolPort-010-852-262 41076407 ChemDiv-G952-1684 MCULE-9578582837 PubChem-52095939 ZINC000041076407 ZINC41076407
 24 26 0 0 0
SMALL
GASTEIGER

@<TRIPOS>ATOM
      1 C           9.0953   41.8092   11.1010 C.2     1  UNL1        0.2721
      2 N           7.8491   41.1067   11.1648 N.am    1  UNL1       -0.2597
      3 O           9.1717   42.9625   10.6021 O.2     1  UNL1       -0.2707
      4 H           7.8717   40.1959   11.5379 H       1  UNL1        0.1569
      5 C           4.4585   43.6070    8.7873 C.ar    1  UNL1        0.1643
      6 C           4.3104   42.1456   10.2877 C.ar    1  UNL1        0.2195
      7 C           6.5730   41.5988   10.7392 C.ar    1  UNL1        0.1880
      8 N           3.1370   43.3999    9.0362 N.ar    1  UNL1       -0.1310
      9 N           3.0395   42.4679    9.9934 N.ar    1  UNL1       -0.1202
     10 N           6.4610   42.5562    9.7751 N.ar    1  UNL1       -0.1400
     11 N           5.1783   42.8123    9.5782 N.ar    1  UNL1       -0.1881
     12 S           5.0374   41.0657   11.3403 S.2     1  UNL1       -0.0111
     13 C           5.0115   44.5499    7.7744 C.3     1  UNL1        0.0677
     14 C           7.1125   43.8551    6.6698 C.3     1  UNL1        0.0005
     15 C           5.6018   43.7763    6.6125 C.3     1  UNL1        0.0080
     16 C          10.3258   41.1656   11.6415 C.3     1  UNL1        0.2897
     17 O          10.8762   40.2684   10.6820 O.3     1  UNL1       -0.4647
     18 C          11.9559   40.5950    9.8510 C.ar    1  UNL1        0.1497
     19 C          13.2521   40.1919   10.2108 C.ar    1  UNL1        0.0915
     20 C          14.3392   40.5098    9.3903 C.ar    1  UNL1        0.0145
     21 C          14.1420   41.2279    8.2084 C.ar    1  UNL1        0.0011
     22 C          12.8558   41.6306    7.8426 C.ar    1  UNL1        0.0032
     23 C          11.7670   41.3155    8.6595 C.ar    1  UNL1        0.0378
     24 CL         13.5353   39.2910   11.6894 Cl      1  UNL1       -0.0791
@<TRIPOS>BOND
     1    14    15    1
     2    15    13    1
     3    13     5    1
     4     6    12   ar
     5     7    12   ar
     6     7     2    1
     7    16     1    1
     8    16    17    1
     9    18    17    1
    10    19    24    1
    11    19    20   ar
    12    21    22   ar
    13    23    18   ar
    14     8     9   ar
    15     2     1   am
    16    11    10   ar
    17    11     5   ar
    18    11     6   ar
    19     5     8   ar
    20     6     9   ar
    21     7    10   ar
    22     1     3    2
    23    18    19   ar
    24    20    21   ar
    25    22    23   ar
    26     2     4    1
