@<TRIPOS>MOLECULE
MolPort-020-278-609 CHEMBL3448474 MCULE-6381065529 PubChem-110255481
 25 27 0 0 0
SMALL
GASTEIGER

@<TRIPOS>ATOM
      1 C          11.8464   40.0680    8.7809 C.ar    1  UNL1        0.1411
      2 C          11.8705   41.5088    6.8986 C.ar    1  UNL1        0.1368
      3 C          10.4759   41.6043    6.9565 C.ar    1  UNL1        0.0492
      4 C           9.7973   40.9077    7.9541 C.ar    1  UNL1        0.0635
      5 C           8.3163   40.9894    8.0414 C.3     1  UNL1        0.0522
      6 N          12.5218   40.7424    7.8131 N.ar    1  UNL1       -0.2158
      7 N          10.4897   40.1544    8.8463 N.ar    1  UNL1       -0.2349
      8 C          12.6037   39.2395    9.7648 C.3     1  UNL1        0.0746
      9 C          13.1042   37.9468    9.1088 C.3     1  UNL1        0.0797
     10 C          14.9970   37.8656   10.6257 C.3     1  UNL1        0.0722
     11 C          14.5341   39.1492   11.3224 C.3     1  UNL1        0.0178
     12 C          13.7753   40.0240   10.3383 C.3     1  UNL1        0.0104
     13 N          13.8829   37.1100   10.0347 N.3     1  UNL1       -0.2702
     14 C          13.0214   36.5865   11.0911 C.3     1  UNL1        0.1042
     15 C          11.8053   35.9166   10.4817 C.3     1  UNL1        0.1544
     16 O          11.3041   34.9673   11.3706 O.3     1  UNL1       -0.3805
     17 H          11.9854   34.3004   11.5495 H       1  UNL1        0.2105
     18 N          12.6374   42.1972    5.9003 N.pl3   1  UNL1       -0.2679
     19 H          12.3396   42.0853    4.9686 H       1  UNL1        0.1565
     20 C          13.7877   43.0295    6.1028 C.ar    1  UNL1        0.2218
     21 C          15.9418   43.3030    7.0446 C.ar    1  UNL1        0.1034
     22 C          16.0219   44.5914    6.5200 C.ar    1  UNL1        0.0414
     23 C          14.9439   45.0708    5.7788 C.ar    1  UNL1        0.1034
     24 N          14.8323   42.5490    6.8280 N.ar    1  UNL1       -0.2120
     25 N          13.8519   44.2865    5.5840 N.ar    1  UNL1       -0.2120
@<TRIPOS>BOND
     1     1     7   ar
     2     2     6   ar
     3     2    18    1
     4    20    25   ar
     5    21    24   ar
     6    22    23   ar
     7     3     4   ar
     8     5     4    1
     9     8     1    1
    10     8     9    1
    11     9    13    1
    12    10    13    1
    13    10    11    1
    14    11    12    1
    15    12     8    1
    16    14    13    1
    17    14    15    1
    18    15    16    1
    19    18    20    1
    20     1     6   ar
    21     2     3   ar
    22    20    24   ar
    23    21    22   ar
    24    23    25   ar
    25     4     7   ar
    26    18    19    1
    27    16    17    1
@<TRIPOS>MOLECULE
MolPort-020-278-609 CHEMBL3448474 MCULE-6381065529 PubChem-110255481
 25 27 0 0 0
SMALL
GASTEIGER

@<TRIPOS>ATOM
      1 C           9.2963   41.7430    8.3326 C.ar    1  UNL1        0.1411
      2 C          11.4606   41.8235    7.3687 C.ar    1  UNL1        0.1368
      3 C          11.9930   41.2337    8.5202 C.ar    1  UNL1        0.0492
      4 C          11.1323   40.9104    9.5669 C.ar    1  UNL1        0.0635
      5 C          11.6680   40.2829   10.8026 C.3     1  UNL1        0.0522
      6 N          10.1242   42.0636    7.3034 N.ar    1  UNL1       -0.2158
      7 N           9.8041   41.1685    9.4572 N.ar    1  UNL1       -0.2349
      8 C           7.8351   42.0240    8.2159 C.3     1  UNL1        0.0746
      9 C           7.1884   42.1015    9.6044 C.3     1  UNL1        0.0797
     10 C           5.5015   43.6362    8.7742 C.3     1  UNL1        0.0722
     11 C           6.1028   43.5852    7.3659 C.3     1  UNL1        0.0178
     12 C           7.5965   43.3196    7.4533 C.3     1  UNL1        0.0104
     13 N           5.7507   42.4064    9.5401 N.3     1  UNL1       -0.2702
     14 C           5.0226   41.2914    8.9410 C.3     1  UNL1        0.1042
     15 C           3.7017   41.0918    9.6584 C.3     1  UNL1        0.1544
     16 O           2.6581   41.1617    8.7372 O.3     1  UNL1       -0.3805
     17 H           2.6645   42.0309    8.3068 H       1  UNL1        0.2105
     18 N          12.2842   42.1840    6.2506 N.pl3   1  UNL1       -0.2679
     19 H          11.9737   41.8829    5.3662 H       1  UNL1        0.1565
     20 C          13.5075   42.9324    6.2722 C.ar    1  UNL1        0.2218
     21 C          15.7626   43.0958    6.9720 C.ar    1  UNL1        0.1034
     22 C          15.8820   44.3331    6.3423 C.ar    1  UNL1        0.0414
     23 C          14.7705   44.8449    5.6759 C.ar    1  UNL1        0.1034
     24 N          14.5841   42.4211    6.9261 N.ar    1  UNL1       -0.2120
     25 N          13.6093   44.1402    5.6523 N.ar    1  UNL1       -0.2120
@<TRIPOS>BOND
     1     1     7   ar
     2     2     6   ar
     3     2    18    1
     4    20    25   ar
     5    21    24   ar
     6    22    23   ar
     7     3     4   ar
     8     5     4    1
     9     8     1    1
    10     8     9    1
    11     9    13    1
    12    10    13    1
    13    10    11    1
    14    11    12    1
    15    12     8    1
    16    14    13    1
    17    14    15    1
    18    15    16    1
    19    18    20    1
    20     1     6   ar
    21     2     3   ar
    22    20    24   ar
    23    21    22   ar
    24    23    25   ar
    25     4     7   ar
    26    18    19    1
    27    16    17    1
@<TRIPOS>MOLECULE
MolPort-020-278-609 CHEMBL3448474 MCULE-6381065529 PubChem-110255481
 25 27 0 0 0
SMALL
GASTEIGER

@<TRIPOS>ATOM
      1 C          14.7345   39.7971    9.8524 C.ar    1  UNL1        0.1411
      2 C          16.4124   41.2532    9.0253 C.ar    1  UNL1        0.1368
      3 C          17.3947   40.4602    9.6281 C.ar    1  UNL1        0.0492
      4 C          16.9995   39.3310   10.3421 C.ar    1  UNL1        0.0635
      5 C          18.0196   38.4690   10.9933 C.3     1  UNL1        0.0522
      6 N          15.1054   40.9016    9.1524 N.ar    1  UNL1       -0.2158
      7 N          15.6823   39.0186   10.4423 N.ar    1  UNL1       -0.2349
      8 C          13.2873   39.4491    9.9642 C.3     1  UNL1        0.0746
      9 C          12.4418   40.3660    9.0718 C.3     1  UNL1        0.0797
     10 C          10.7712   38.6262    8.8031 C.3     1  UNL1        0.0722
     11 C          11.5726   37.6745    9.6971 C.3     1  UNL1        0.0178
     12 C          13.0547   37.9923    9.5889 C.3     1  UNL1        0.0104
     13 N          11.0083   40.0404    9.1271 N.3     1  UNL1       -0.2702
     14 C          10.4705   40.3442   10.4503 C.3     1  UNL1        0.1042
     15 C           9.5549   41.5503   10.3714 C.3     1  UNL1        0.1544
     16 O           8.2292   41.1238   10.3164 O.3     1  UNL1       -0.3805
     17 H           8.1006   40.5681    9.5318 H       1  UNL1        0.2105
     18 N          16.7427   42.4303    8.2743 N.pl3   1  UNL1       -0.2679
     19 H          17.6383   42.8085    8.4293 H       1  UNL1        0.1565
     20 C          15.9190   43.1196    7.3238 C.ar    1  UNL1        0.2218
     21 C          13.9853   43.1287    5.9591 C.ar    1  UNL1        0.1034
     22 C          14.3026   44.4038    5.4955 C.ar    1  UNL1        0.0414
     23 C          15.4581   45.0139    5.9794 C.ar    1  UNL1        0.1034
     24 N          14.7946   42.5125    6.8601 N.ar    1  UNL1       -0.2120
     25 N          16.2418   44.3654    6.8798 N.ar    1  UNL1       -0.2120
@<TRIPOS>BOND
     1     1     7   ar
     2     2     6   ar
     3     2    18    1
     4    20    25   ar
     5    21    24   ar
     6    22    23   ar
     7     3     4   ar
     8     5     4    1
     9     8     1    1
    10     8     9    1
    11     9    13    1
    12    10    13    1
    13    10    11    1
    14    11    12    1
    15    12     8    1
    16    14    13    1
    17    14    15    1
    18    15    16    1
    19    18    20    1
    20     1     6   ar
    21     2     3   ar
    22    20    24   ar
    23    21    22   ar
    24    23    25   ar
    25     4     7   ar
    26    18    19    1
    27    16    17    1
@<TRIPOS>MOLECULE
MolPort-020-278-609 CHEMBL3448474 MCULE-6381065529 PubChem-110255481
 25 27 0 0 0
SMALL
GASTEIGER

@<TRIPOS>ATOM
      1 C          11.7592   41.1564   10.1995 C.ar    1  UNL1        0.1411
      2 C          13.6975   40.9893    8.8449 C.ar    1  UNL1        0.1368
      3 C          14.2238   40.0328    9.7198 C.ar    1  UNL1        0.0492
      4 C          13.4766   39.6619   10.8356 C.ar    1  UNL1        0.0635
      5 C          14.0088   38.6485   11.7829 C.3     1  UNL1        0.0522
      6 N          12.4771   41.5278    9.1067 N.ar    1  UNL1       -0.2158
      7 N          12.2620   40.2265   11.0567 N.ar    1  UNL1       -0.2349
      8 C          10.4228   41.7737   10.4460 C.3     1  UNL1        0.0746
      9 C           9.4840   41.5180    9.2605 C.3     1  UNL1        0.0797
     10 C           7.5511   41.5968   10.7261 C.3     1  UNL1        0.0722
     11 C           8.4442   41.8646   11.9418 C.3     1  UNL1        0.0178
     12 C           9.8083   41.2300   11.7281 C.3     1  UNL1        0.0104
     13 N           8.1428   42.0842    9.4717 N.3     1  UNL1       -0.2702
     14 C           8.2050   43.5430    9.4852 C.3     1  UNL1        0.1042
     15 C           7.2668   44.1100    8.4376 C.3     1  UNL1        0.1544
     16 O           6.3747   44.9933    9.0429 O.3     1  UNL1       -0.3805
     17 H           5.8603   44.5221    9.7169 H       1  UNL1        0.2105
     18 N          14.4083   41.4210    7.6758 N.pl3   1  UNL1       -0.2679
     19 H          14.1076   41.0415    6.8186 H       1  UNL1        0.1565
     20 C          15.5063   42.3415    7.6114 C.ar    1  UNL1        0.2218
     21 C          17.6884   42.9339    8.3109 C.ar    1  UNL1        0.1034
     22 C          17.6442   44.0812    7.5213 C.ar    1  UNL1        0.0414
     23 C          16.4916   44.3272    6.7781 C.ar    1  UNL1        0.1034
     24 N          16.6246   42.0890    8.3419 N.ar    1  UNL1       -0.2120
     25 N          15.4487   43.4586    6.8354 N.ar    1  UNL1       -0.2120
@<TRIPOS>BOND
     1     1     7   ar
     2     2     6   ar
     3     2    18    1
     4    20    25   ar
     5    21    24   ar
     6    22    23   ar
     7     3     4   ar
     8     5     4    1
     9     8     1    1
    10     8     9    1
    11     9    13    1
    12    10    13    1
    13    10    11    1
    14    11    12    1
    15    12     8    1
    16    14    13    1
    17    14    15    1
    18    15    16    1
    19    18    20    1
    20     1     6   ar
    21     2     3   ar
    22    20    24   ar
    23    21    22   ar
    24    23    25   ar
    25     4     7   ar
    26    18    19    1
    27    16    17    1
@<TRIPOS>MOLECULE
MolPort-020-278-609 CHEMBL3448474 MCULE-6381065529 PubChem-110255481
 25 27 0 0 0
SMALL
GASTEIGER

@<TRIPOS>ATOM
      1 C          12.7505   40.4155    9.4520 C.ar    1  UNL1        0.1411
      2 C          15.1174   40.2845    9.4365 C.ar    1  UNL1        0.1368
      3 C          15.0557   39.1179   10.2062 C.ar    1  UNL1        0.0492
      4 C          13.8068   38.6280   10.5819 C.ar    1  UNL1        0.0635
      5 C          13.7089   37.3911   11.3993 C.3     1  UNL1        0.0522
      6 N          13.9622   40.9049    9.0780 N.ar    1  UNL1       -0.2158
      7 N          12.6794   39.2811   10.2006 N.ar    1  UNL1       -0.2349
      8 C          11.5082   41.1296    9.0341 C.3     1  UNL1        0.0746
      9 C          10.3849   40.1285    8.7373 C.3     1  UNL1        0.0797
     10 C           8.7079   41.7681    9.3618 C.3     1  UNL1        0.0722
     11 C           9.7915   42.8087    9.6622 C.3     1  UNL1        0.0178
     12 C          11.0651   42.1110   10.1101 C.3     1  UNL1        0.0104
     13 N           9.1293   40.7894    8.3489 N.3     1  UNL1       -0.2702
     14 C           9.2827   41.4480    7.0547 C.3     1  UNL1        0.1042
     15 C           7.9195   41.7698    6.4739 C.3     1  UNL1        0.1544
     16 O           7.9725   42.9988    5.8188 O.3     1  UNL1       -0.3805
     17 H           8.2271   43.6905    6.4494 H       1  UNL1        0.2105
     18 N          16.3665   40.8484    9.0120 N.pl3   1  UNL1       -0.2679
     19 H          17.1755   40.3358    9.2401 H       1  UNL1        0.1565
     20 C          16.5730   42.0726    8.2938 C.ar    1  UNL1        0.2218
     21 C          15.8018   43.6203    6.6778 C.ar    1  UNL1        0.1034
     22 C          16.9247   44.4184    6.8873 C.ar    1  UNL1        0.0414
     23 C          17.8658   44.0009    7.8261 C.ar    1  UNL1        0.1034
     24 N          15.6467   42.4679    7.3807 N.ar    1  UNL1       -0.2120
     25 N          17.6751   42.8422    8.5092 N.ar    1  UNL1       -0.2120
@<TRIPOS>BOND
     1     1     7   ar
     2     2     6   ar
     3     2    18    1
     4    20    25   ar
     5    21    24   ar
     6    22    23   ar
     7     3     4   ar
     8     5     4    1
     9     8     1    1
    10     8     9    1
    11     9    13    1
    12    10    13    1
    13    10    11    1
    14    11    12    1
    15    12     8    1
    16    14    13    1
    17    14    15    1
    18    15    16    1
    19    18    20    1
    20     1     6   ar
    21     2     3   ar
    22    20    24   ar
    23    21    22   ar
    24    23    25   ar
    25     4     7   ar
    26    18    19    1
    27    16    17    1
@<TRIPOS>MOLECULE
MolPort-020-278-609 CHEMBL3448474 MCULE-6381065529 PubChem-110255481
 25 27 0 0 0
SMALL
GASTEIGER

@<TRIPOS>ATOM
      1 C          12.5725   41.6777    6.8807 C.ar    1  UNL1        0.1411
      2 C          14.6710   41.4584    7.9615 C.ar    1  UNL1        0.1368
      3 C          15.1658   42.5324    7.2139 C.ar    1  UNL1        0.0492
      4 C          14.3211   43.1586    6.3000 C.ar    1  UNL1        0.0635
      5 C          14.8178   44.3021    5.4916 C.3     1  UNL1        0.0522
      6 N          13.3854   41.0574    7.7762 N.ar    1  UNL1       -0.2158
      7 N          13.0441   42.7238    6.1486 N.ar    1  UNL1       -0.2349
      8 C          11.1673   41.2038    6.7118 C.3     1  UNL1        0.0746
      9 C          11.1363   39.6947    6.4403 C.3     1  UNL1        0.0797
     10 C           8.9429   39.5178    7.4641 C.3     1  UNL1        0.0722
     11 C           8.9195   41.0230    7.7489 C.3     1  UNL1        0.0178
     12 C          10.3380   41.5318    7.9453 C.3     1  UNL1        0.0104
     13 N           9.7672   39.1763    6.2957 N.3     1  UNL1       -0.2702
     14 C           9.1513   39.7039    5.0814 C.3     1  UNL1        0.1042
     15 C           9.7257   39.0045    3.8648 C.3     1  UNL1        0.1544
     16 O           8.6856   38.5189    3.0744 O.3     1  UNL1       -0.3805
     17 H           8.1551   37.8903    3.5886 H       1  UNL1        0.2105
     18 N          15.4811   40.7645    8.9211 N.pl3   1  UNL1       -0.2679
     19 H          16.3808   41.1320    9.0781 H       1  UNL1        0.1565
     20 C          15.1317   39.5976    9.6781 C.ar    1  UNL1        0.2218
     21 C          14.0690   38.6656   11.5766 C.ar    1  UNL1        0.1034
     22 C          14.4357   37.3845   11.1691 C.ar    1  UNL1        0.0414
     23 C          15.1633   37.2500    9.9885 C.ar    1  UNL1        0.1034
     24 N          14.4216   39.7435   10.8282 N.ar    1  UNL1       -0.2120
     25 N          15.4969   38.3521    9.2675 N.ar    1  UNL1       -0.2120
@<TRIPOS>BOND
     1     1     7   ar
     2     2     6   ar
     3     2    18    1
     4    20    25   ar
     5    21    24   ar
     6    22    23   ar
     7     3     4   ar
     8     5     4    1
     9     8     1    1
    10     8     9    1
    11     9    13    1
    12    10    13    1
    13    10    11    1
    14    11    12    1
    15    12     8    1
    16    14    13    1
    17    14    15    1
    18    15    16    1
    19    18    20    1
    20     1     6   ar
    21     2     3   ar
    22    20    24   ar
    23    21    22   ar
    24    23    25   ar
    25     4     7   ar
    26    18    19    1
    27    16    17    1
@<TRIPOS>MOLECULE
MolPort-020-278-609 CHEMBL3448474 MCULE-6381065529 PubChem-110255481
 25 27 0 0 0
SMALL
GASTEIGER

@<TRIPOS>ATOM
      1 C          12.0496   40.7156    9.8846 C.ar    1  UNL1        0.1411
      2 C          14.2913   40.5876    9.1242 C.ar    1  UNL1        0.1368
      3 C          14.4199   39.3292    9.7216 C.ar    1  UNL1        0.0492
      4 C          13.3263   38.7938   10.3986 C.ar    1  UNL1        0.0635
      5 C          13.4322   37.4592   11.0432 C.3     1  UNL1        0.0522
      6 N          13.1083   41.2502    9.2205 N.ar    1  UNL1       -0.2158
      7 N          12.1642   39.4917   10.4690 N.ar    1  UNL1       -0.2349
      8 C          10.7694   41.4789    9.9635 C.3     1  UNL1        0.0746
      9 C          10.1483   41.3469   11.3595 C.3     1  UNL1        0.0797
     10 C           9.0929   43.5210   11.1363 C.3     1  UNL1        0.0722
     11 C           9.6807   43.6974    9.7325 C.3     1  UNL1        0.0178
     12 C          10.9974   42.9460    9.6277 C.3     1  UNL1        0.0104
     13 N           8.8969   42.1085   11.4936 N.3     1  UNL1       -0.2702
     14 C           7.8552   41.5233   10.6542 C.3     1  UNL1        0.1042
     15 C           6.5540   41.4397   11.4283 C.3     1  UNL1        0.1544
     16 O           5.6067   42.2722   10.8350 O.3     1  UNL1       -0.3805
     17 H           5.9298   43.1868   10.8430 H       1  UNL1        0.2105
     18 N          15.3732   41.2029    8.4103 N.pl3   1  UNL1       -0.2679
     19 H          16.2652   40.8100    8.5486 H       1  UNL1        0.1565
     20 C          15.3054   42.3242    7.5186 C.ar    1  UNL1        0.2218
     21 C          16.2155   44.3850    6.7930 C.ar    1  UNL1        0.1034
     22 C          15.2180   44.5004    5.8270 C.ar    1  UNL1        0.0414
     23 C          14.2653   43.4876    5.7374 C.ar    1  UNL1        0.1034
     24 N          16.2415   43.3051    7.6172 N.ar    1  UNL1       -0.2120
     25 N          14.3248   42.4233    6.5795 N.ar    1  UNL1       -0.2120
@<TRIPOS>BOND
     1     1     7   ar
     2     2     6   ar
     3     2    18    1
     4    20    25   ar
     5    21    24   ar
     6    22    23   ar
     7     3     4   ar
     8     5     4    1
     9     8     1    1
    10     8     9    1
    11     9    13    1
    12    10    13    1
    13    10    11    1
    14    11    12    1
    15    12     8    1
    16    14    13    1
    17    14    15    1
    18    15    16    1
    19    18    20    1
    20     1     6   ar
    21     2     3   ar
    22    20    24   ar
    23    21    22   ar
    24    23    25   ar
    25     4     7   ar
    26    18    19    1
    27    16    17    1
@<TRIPOS>MOLECULE
MolPort-020-278-609 CHEMBL3448474 MCULE-6381065529 PubChem-110255481
 25 27 0 0 0
SMALL
GASTEIGER

@<TRIPOS>ATOM
      1 C          12.4356   40.6988    9.7308 C.ar    1  UNL1        0.1411
      2 C          14.6786   40.8898    8.9876 C.ar    1  UNL1        0.1368
      3 C          15.0894   40.0322   10.0138 C.ar    1  UNL1        0.0492
      4 C          14.1301   39.5240   10.8869 C.ar    1  UNL1        0.0635
      5 C          14.5356   38.6107   11.9865 C.3     1  UNL1        0.0522
      6 N          13.3607   41.2020    8.8714 N.ar    1  UNL1       -0.2158
      7 N          12.8248   39.8633   10.7324 N.ar    1  UNL1       -0.2349
      8 C          10.9991   41.0682    9.5640 C.3     1  UNL1        0.0746
      9 C          10.6538   42.2910   10.4228 C.3     1  UNL1        0.0797
     10 C           8.9214   42.9491    8.8556 C.3     1  UNL1        0.0722
     11 C           9.2199   41.7366    7.9678 C.3     1  UNL1        0.0178
     12 C          10.6830   41.3484    8.1016 C.3     1  UNL1        0.0104
     13 N           9.2523   42.7105   10.2680 N.3     1  UNL1       -0.2702
     14 C           8.3567   41.7006   10.8248 C.3     1  UNL1        0.1042
     15 C           6.9162   42.1526   10.6828 C.3     1  UNL1        0.1544
     16 O           6.1751   41.6885   11.7680 O.3     1  UNL1       -0.3805
     17 H           6.2093   40.7194   11.7921 H       1  UNL1        0.2105
     18 N          15.6084   41.4520    8.0506 N.pl3   1  UNL1       -0.2679
     19 H          16.4712   40.9865    7.9609 H       1  UNL1        0.1565
     20 C          15.4263   42.6138    7.2296 C.ar    1  UNL1        0.2218
     21 C          14.1382   43.7577    5.6065 C.ar    1  UNL1        0.1034
     22 C          15.0322   44.8263    5.6312 C.ar    1  UNL1        0.0414
     23 C          16.1309   44.7484    6.4845 C.ar    1  UNL1        0.1034
     24 N          14.3499   42.6763    6.4016 N.ar    1  UNL1       -0.2120
     25 N          16.3082   43.6503    7.2644 N.ar    1  UNL1       -0.2120
@<TRIPOS>BOND
     1     1     7   ar
     2     2     6   ar
     3     2    18    1
     4    20    25   ar
     5    21    24   ar
     6    22    23   ar
     7     3     4   ar
     8     5     4    1
     9     8     1    1
    10     8     9    1
    11     9    13    1
    12    10    13    1
    13    10    11    1
    14    11    12    1
    15    12     8    1
    16    14    13    1
    17    14    15    1
    18    15    16    1
    19    18    20    1
    20     1     6   ar
    21     2     3   ar
    22    20    24   ar
    23    21    22   ar
    24    23    25   ar
    25     4     7   ar
    26    18    19    1
    27    16    17    1
@<TRIPOS>MOLECULE
MolPort-020-278-609 CHEMBL3448474 MCULE-6381065529 PubChem-110255481
 25 27 0 0 0
SMALL
GASTEIGER

@<TRIPOS>ATOM
      1 C          13.9398   41.8880    7.2183 C.ar    1  UNL1        0.1411
      2 C          16.0990   41.8555    8.1963 C.ar    1  UNL1        0.1368
      3 C          16.4110   43.0521    7.5421 C.ar    1  UNL1        0.0492
      4 C          15.4475   43.6406    6.7258 C.ar    1  UNL1        0.0635
      5 C          15.7491   44.9117    6.0179 C.3     1  UNL1        0.0522
      6 N          14.8700   41.3026    8.0181 N.ar    1  UNL1       -0.2158
      7 N          14.2331   43.0524    6.5776 N.ar    1  UNL1       -0.2349
      8 C          12.6027   41.2454    7.0534 C.3     1  UNL1        0.0746
      9 C          11.9629   40.9737    8.4205 C.3     1  UNL1        0.0797
     10 C           9.7420   41.1824    7.4644 C.3     1  UNL1        0.0722
     11 C          10.3306   41.4479    6.0750 C.3     1  UNL1        0.0178
     12 C          11.6863   42.1211    6.2105 C.3     1  UNL1        0.0104
     13 N          10.6280   40.3662    8.3071 N.3     1  UNL1       -0.2702
     14 C          10.7304   39.0164    7.7594 C.3     1  UNL1        0.1042
     15 C          10.9288   38.0168    8.8822 C.3     1  UNL1        0.1544
     16 O          10.4650   38.5634   10.0775 O.3     1  UNL1       -0.3805
     17 H          10.9589   39.3744   10.2753 H       1  UNL1        0.2105
     18 N          17.0393   41.1914    9.0526 N.pl3   1  UNL1       -0.2679
     19 H          17.9431   41.5798    9.0908 H       1  UNL1        0.1565
     20 C          16.8148   40.0271    9.8594 C.ar    1  UNL1        0.2218
     21 C          17.6023   37.9449   10.6634 C.ar    1  UNL1        0.1034
     22 C          16.4302   37.7698   11.3963 C.ar    1  UNL1        0.0414
     23 C          15.4569   38.7648   11.3329 C.ar    1  UNL1        0.1034
     24 N          17.7730   39.0641    9.9120 N.ar    1  UNL1       -0.2120
     25 N          15.6645   39.8696   10.5703 N.ar    1  UNL1       -0.2120
@<TRIPOS>BOND
     1     1     7   ar
     2     2     6   ar
     3     2    18    1
     4    20    25   ar
     5    21    24   ar
     6    22    23   ar
     7     3     4   ar
     8     5     4    1
     9     8     1    1
    10     8     9    1
    11     9    13    1
    12    10    13    1
    13    10    11    1
    14    11    12    1
    15    12     8    1
    16    14    13    1
    17    14    15    1
    18    15    16    1
    19    18    20    1
    20     1     6   ar
    21     2     3   ar
    22    20    24   ar
    23    21    22   ar
    24    23    25   ar
    25     4     7   ar
    26    18    19    1
    27    16    17    1
@<TRIPOS>MOLECULE
MolPort-020-278-609 CHEMBL3448474 MCULE-6381065529 PubChem-110255481
 25 27 0 0 0
SMALL
GASTEIGER

@<TRIPOS>ATOM
      1 C           7.2885   41.6747   11.1800 C.ar    1  UNL1        0.1411
      2 C           9.5631   41.4418   10.5542 C.ar    1  UNL1        0.1368
      3 C           9.9099   41.2469   11.8955 C.ar    1  UNL1        0.0492
      4 C           8.9037   41.2736   12.8587 C.ar    1  UNL1        0.0635
      5 C           9.2408   41.0697   14.2913 C.3     1  UNL1        0.0522
      6 N           8.2598   41.6510   10.2294 N.ar    1  UNL1       -0.2158
      7 N           7.6152   41.4858   12.4877 N.ar    1  UNL1       -0.2349
      8 C           5.8703   41.9065   10.7766 C.3     1  UNL1        0.0746
      9 C           5.7523   41.9992    9.2503 C.3     1  UNL1        0.0797
     10 C           3.4789   41.1540    9.3373 C.3     1  UNL1        0.0722
     11 C           3.5415   41.0523   10.8647 C.3     1  UNL1        0.0178
     12 C           4.9732   40.7962   11.3053 C.3     1  UNL1        0.0104
     13 N           4.3650   42.1986    8.8035 N.3     1  UNL1       -0.2702
     14 C           3.8848   43.5152    9.2138 C.3     1  UNL1        0.1042
     15 C           4.0694   44.5082    8.0828 C.3     1  UNL1        0.1544
     16 O           2.8440   45.0981    7.7785 O.3     1  UNL1       -0.3805
     17 H           2.2135   44.4126    7.5075 H       1  UNL1        0.2105
     18 N          10.5438   41.4277    9.5070 N.pl3   1  UNL1       -0.2679
     19 H          10.2486   41.7625    8.6296 H       1  UNL1        0.1565
     20 C          11.9045   40.9822    9.5907 C.ar    1  UNL1        0.2218
     21 C          14.0835   40.9633    8.6669 C.ar    1  UNL1        0.1034
     22 C          14.5316   40.1516    9.7071 C.ar    1  UNL1        0.0414
     23 C          13.6181   39.7701   10.6875 C.ar    1  UNL1        0.1034
     24 N          12.7851   41.3620    8.6272 N.ar    1  UNL1       -0.2120
     25 N          12.3280   40.1893   10.6131 N.ar    1  UNL1       -0.2120
@<TRIPOS>BOND
     1     1     7   ar
     2     2     6   ar
     3     2    18    1
     4    20    25   ar
     5    21    24   ar
     6    22    23   ar
     7     3     4   ar
     8     5     4    1
     9     8     1    1
    10     8     9    1
    11     9    13    1
    12    10    13    1
    13    10    11    1
    14    11    12    1
    15    12     8    1
    16    14    13    1
    17    14    15    1
    18    15    16    1
    19    18    20    1
    20     1     6   ar
    21     2     3   ar
    22    20    24   ar
    23    21    22   ar
    24    23    25   ar
    25     4     7   ar
    26    18    19    1
    27    16    17    1
