@<TRIPOS>MOLECULE
MolPort-051-736-026
 37 41 0 0 0
SMALL
GASTEIGER

@<TRIPOS>ATOM
      1 C          12.6440   42.1584    7.5426 C.2     1  UNL1        0.2478
      2 C          10.8831   42.9063    9.1654 C.3     1  UNL1        0.0935
      3 C          10.4822   42.8187   10.6387 C.3     1  UNL1        0.0220
      4 C          10.6215   41.3763   11.1351 C.3     1  UNL1        0.0119
      5 C          10.2764   41.2155   12.5950 C.3     1  UNL1        0.0097
      6 C           9.3944   40.5595   11.5355 C.3     1  UNL1        0.0770
      7 C          11.8446   40.5665   10.7150 C.3     1  UNL1        0.0220
      8 C          12.8243   41.4475    9.9463 C.3     1  UNL1        0.0935
      9 O          12.0407   42.7814    6.6260 O.2     1  UNL1       -0.2727
     10 N          12.1232   42.1700    8.8809 N.am    1  UNL1       -0.2779
     11 C           8.1049   41.3073   11.3733 C.2     1  UNL1        0.2267
     12 O           7.6778   42.0171   12.3233 O.2     1  UNL1       -0.2747
     13 N           7.4009   41.2530   10.1272 N.am    1  UNL1       -0.2667
     14 H           7.7993   40.7213    9.4006 H       1  UNL1        0.1563
     15 C           6.1602   41.9155    9.8616 C.ar    1  UNL1        0.1761
     16 C           4.1118   42.5940    9.9627 C.ar    1  UNL1        0.1790
     17 C           2.7997   42.7280   10.4074 C.ar    1  UNL1        0.0517
     18 C           2.4227   41.9787   11.5393 C.ar    1  UNL1        0.0608
     19 C           3.3538   41.1311   12.1855 C.ar    1  UNL1        0.0117
     20 C           4.6741   41.0186   11.7096 C.ar    1  UNL1        0.0069
     21 C           5.0059   41.7733   10.5878 C.ar    1  UNL1        0.0721
     22 O           4.6957   43.1784    8.9430 O.2     1  UNL1       -0.3521
     23 N           5.9421   42.7907    8.8508 N.ar    1  UNL1       -0.0617
     24 CL          0.7877   42.0968   12.1519 Cl      1  UNL1       -0.0821
     25 C          13.8760   41.3627    7.2080 C.3     1  UNL1        0.1718
     26 C          15.1139   42.1806    7.4027 C.ar    1  UNL1        0.0044
     27 C          16.2459   41.5798    7.9650 C.ar    1  UNL1        0.0001
     28 C          17.4195   42.3185    8.1417 C.ar    1  UNL1        0.0294
     29 C          17.4653   43.6614    7.7557 C.ar    1  UNL1        0.1401
     30 C          16.3388   44.2658    7.1900 C.ar    1  UNL1        0.0294
     31 C          15.1649   43.5278    7.0128 C.ar    1  UNL1        0.0001
     32 F          18.6034   44.3757    7.9251 F       1  UNL1       -0.2042
     33 C          14.7811   38.7141    9.8939 C.3     1  UNL1        0.0946
     34 C          14.7454   40.0070    9.1632 C.2     1  UNL1        0.2235
     35 O          15.4185   40.9828    9.5887 O.2     1  UNL1       -0.2751
     36 N          13.9420   40.1319    7.9886 N.am    1  UNL1       -0.2950
     37 H          13.4117   39.3565    7.6940 H       1  UNL1        0.1501
@<TRIPOS>BOND
     1    33    34    1
     2    34    36   am
     3    25    36    1
     4    25     1    1
     5    25    26    1
     6     1    10   am
     7     2    10    1
     8     2     3    1
     9     3     4    1
    10     4     5    1
    11     4     7    1
    12     5     6    1
    13     6    11    1
    14     6     4    1
    15    11    13   am
    16    16    22   ar
    17    17    18   ar
    18    18    24    1
    19    19    20   ar
    20    21    15   ar
    21    21    16   ar
    22     7     8    1
    23     8    10    1
    24    27    28   ar
    25    29    32    1
    26    29    30   ar
    27    31    26   ar
    28    13    15    1
    29    23    22   ar
    30    34    35    2
    31     1     9    2
    32    11    12    2
    33    15    23   ar
    34    16    17   ar
    35    18    19   ar
    36    20    21   ar
    37    26    27   ar
    38    28    29   ar
    39    30    31   ar
    40    36    37    1
    41    13    14    1
@<TRIPOS>MOLECULE
MolPort-051-736-026
 37 41 0 0 0
SMALL
GASTEIGER

@<TRIPOS>ATOM
      1 C           7.4056   43.0092    7.9405 C.2     1  UNL1        0.2478
      2 C           9.7969   42.2584    7.8327 C.3     1  UNL1        0.0935
      3 C          10.6735   41.0695    7.4360 C.3     1  UNL1        0.0220
      4 C          10.0733   39.7703    7.9820 C.3     1  UNL1        0.0119
      5 C          10.8658   38.5445    7.6003 C.3     1  UNL1        0.0097
      6 C          10.7896   38.9666    9.0655 C.3     1  UNL1        0.0770
      7 C           8.5645   39.5606    7.8940 C.3     1  UNL1        0.0220
      8 C           7.9175   40.6948    7.1053 C.3     1  UNL1        0.0935
      9 O           7.7929   44.1242    8.3865 O.2     1  UNL1       -0.2727
     10 N           8.3667   41.9899    7.6247 N.am    1  UNL1       -0.2779
     11 C          12.0786   39.5893    9.5119 C.2     1  UNL1        0.2267
     12 O          12.0796   40.3637   10.5065 O.2     1  UNL1       -0.2747
     13 N          13.3003   39.2578    8.8420 N.am    1  UNL1       -0.2667
     14 H          13.2535   38.6126    8.0998 H       1  UNL1        0.1563
     15 C          14.5845   39.7964    9.1732 C.ar    1  UNL1        0.1761
     16 C          16.3628   41.0211    9.2359 C.ar    1  UNL1        0.1790
     17 C          17.2601   42.0395    8.9274 C.ar    1  UNL1        0.0517
     18 C          16.8797   42.9520    7.9238 C.ar    1  UNL1        0.0608
     19 C          15.6321   42.8238    7.2682 C.ar    1  UNL1        0.0117
     20 C          14.7473   41.7815    7.6045 C.ar    1  UNL1        0.0069
     21 C          15.1613   40.9000    8.5991 C.ar    1  UNL1        0.0721
     22 O          16.4857   40.0604   10.1214 O.2     1  UNL1       -0.3521
     23 N          15.4232   39.2965   10.1122 N.ar    1  UNL1       -0.0617
     24 CL         17.9602   44.2563    7.4833 Cl      1  UNL1       -0.0821
     25 C           5.9322   42.7421    7.7974 C.3     1  UNL1        0.1718
     26 C           5.3893   42.0571    9.0121 C.ar    1  UNL1        0.0044
     27 C           4.3471   41.1347    8.8654 C.ar    1  UNL1        0.0001
     28 C           3.8343   40.4696    9.9829 C.ar    1  UNL1        0.0294
     29 C           4.3628   40.7243   11.2518 C.ar    1  UNL1        0.1401
     30 C           5.4065   41.6419   11.4040 C.ar    1  UNL1        0.0294
     31 C           5.9200   42.3073   10.2870 C.ar    1  UNL1        0.0001
     32 F           3.8669   40.0779   12.3337 F       1  UNL1       -0.2042
     33 C           3.2298   45.5252    7.7879 C.3     1  UNL1        0.0946
     34 C           3.9359   44.2646    8.1335 C.2     1  UNL1        0.2235
     35 O           3.4227   43.4702    8.9653 O.2     1  UNL1       -0.2751
     36 N           5.1935   43.9700    7.5234 N.am    1  UNL1       -0.2950
     37 H           5.5771   44.6216    6.8929 H       1  UNL1        0.1501
@<TRIPOS>BOND
     1    33    34    1
     2    34    36   am
     3    25    36    1
     4    25     1    1
     5    25    26    1
     6     1    10   am
     7     2    10    1
     8     2     3    1
     9     3     4    1
    10     4     5    1
    11     4     7    1
    12     5     6    1
    13     6    11    1
    14     6     4    1
    15    11    13   am
    16    16    22   ar
    17    17    18   ar
    18    18    24    1
    19    19    20   ar
    20    21    15   ar
    21    21    16   ar
    22     7     8    1
    23     8    10    1
    24    27    28   ar
    25    29    32    1
    26    29    30   ar
    27    31    26   ar
    28    13    15    1
    29    23    22   ar
    30    34    35    2
    31     1     9    2
    32    11    12    2
    33    15    23   ar
    34    16    17   ar
    35    18    19   ar
    36    20    21   ar
    37    26    27   ar
    38    28    29   ar
    39    30    31   ar
    40    36    37    1
    41    13    14    1
@<TRIPOS>MOLECULE
MolPort-051-736-026
 37 41 0 0 0
SMALL
GASTEIGER

@<TRIPOS>ATOM
      1 C           6.7922   42.0819    8.9973 C.2     1  UNL1        0.2478
      2 C           9.2154   42.0704    8.3479 C.3     1  UNL1        0.0935
      3 C          10.1422   41.9184    7.1408 C.3     1  UNL1        0.0220
      4 C           9.6919   40.7342    6.2799 C.3     1  UNL1        0.0119
      5 C          10.5394   40.5413    5.0466 C.3     1  UNL1        0.0097
      6 C          10.5582   39.4831    6.1470 C.3     1  UNL1        0.0770
      7 C           8.2015   40.5351    6.0208 C.3     1  UNL1        0.0220
      8 C           7.4045   41.7051    6.5892 C.3     1  UNL1        0.0935
      9 O           7.1307   42.2974   10.1936 O.2     1  UNL1       -0.2727
     10 N           7.7971   41.9542    7.9793 N.am    1  UNL1       -0.2779
     11 C          11.8298   39.5549    6.9383 C.2     1  UNL1        0.2267
     12 O          12.3391   38.4932    7.3880 O.2     1  UNL1       -0.2747
     13 N          12.4809   40.8163    7.1289 N.am    1  UNL1       -0.2667
     14 H          12.0673   41.6101    6.7189 H       1  UNL1        0.1563
     15 C          13.6894   41.0065    7.8722 C.ar    1  UNL1        0.1761
     16 C          15.6181   41.7096    8.5444 C.ar    1  UNL1        0.1790
     17 C          16.8077   42.4316    8.5764 C.ar    1  UNL1        0.0517
     18 C          17.0274   43.3588    7.5387 C.ar    1  UNL1        0.0608
     19 C          16.0663   43.5364    6.5152 C.ar    1  UNL1        0.0117
     20 C          14.8728   42.7895    6.5127 C.ar    1  UNL1        0.0069
     21 C          14.6949   41.8826    7.5537 C.ar    1  UNL1        0.0721
     22 O          15.1886   40.7991    9.3862 O.2     1  UNL1       -0.3521
     23 N          14.0186   40.3496    9.0102 N.ar    1  UNL1       -0.0617
     24 CL         18.5029   44.2995    7.5148 Cl      1  UNL1       -0.0821
     25 C           5.3366   41.9056    8.6616 C.3     1  UNL1        0.1718
     26 C           4.5195   41.7059    9.8993 C.ar    1  UNL1        0.0044
     27 C           3.5063   42.6226   10.2020 C.ar    1  UNL1        0.0001
     28 C           2.7185   42.4485   11.3436 C.ar    1  UNL1        0.0294
     29 C           2.9410   41.3557   12.1867 C.ar    1  UNL1        0.1401
     30 C           3.9492   40.4346   11.8873 C.ar    1  UNL1        0.0294
     31 C           4.7372   40.6079   10.7458 C.ar    1  UNL1        0.0001
     32 F           2.1759   41.1865   13.2913 F       1  UNL1       -0.2042
     33 C           4.6392   45.4806    7.3269 C.3     1  UNL1        0.0946
     34 C           5.2147   44.3825    8.1453 C.2     1  UNL1        0.2235
     35 O           6.0407   44.6513    9.0574 O.2     1  UNL1       -0.2751
     36 N           4.8301   43.0317    7.8844 N.am    1  UNL1       -0.2950
     37 H           4.1981   42.8535    7.1509 H       1  UNL1        0.1501
@<TRIPOS>BOND
     1    33    34    1
     2    34    36   am
     3    25    36    1
     4    25     1    1
     5    25    26    1
     6     1    10   am
     7     2    10    1
     8     2     3    1
     9     3     4    1
    10     4     5    1
    11     4     7    1
    12     5     6    1
    13     6    11    1
    14     6     4    1
    15    11    13   am
    16    16    22   ar
    17    17    18   ar
    18    18    24    1
    19    19    20   ar
    20    21    15   ar
    21    21    16   ar
    22     7     8    1
    23     8    10    1
    24    27    28   ar
    25    29    32    1
    26    29    30   ar
    27    31    26   ar
    28    13    15    1
    29    23    22   ar
    30    34    35    2
    31     1     9    2
    32    11    12    2
    33    15    23   ar
    34    16    17   ar
    35    18    19   ar
    36    20    21   ar
    37    26    27   ar
    38    28    29   ar
    39    30    31   ar
    40    36    37    1
    41    13    14    1
@<TRIPOS>MOLECULE
MolPort-051-736-026
 37 41 0 0 0
SMALL
GASTEIGER

@<TRIPOS>ATOM
      1 C          11.9319   41.7968    7.4669 C.2     1  UNL1        0.2478
      2 C          10.2359   42.6872    9.0870 C.3     1  UNL1        0.0935
      3 C           9.9494   42.8240   10.5831 C.3     1  UNL1        0.0220
      4 C          10.2411   41.5000   11.2960 C.3     1  UNL1        0.0119
      5 C          10.0151   41.5664   12.7863 C.3     1  UNL1        0.0097
      6 C           9.1164   40.6810   11.9265 C.3     1  UNL1        0.0770
      7 C          11.4931   40.7163   10.9134 C.3     1  UNL1        0.0220
      8 C          12.3404   41.5190    9.9310 C.3     1  UNL1        0.0935
      9 O          11.2160   42.2121    6.5145 O.2     1  UNL1       -0.2727
     10 N          11.5085   42.0000    8.8241 N.am    1  UNL1       -0.2779
     11 C           7.7619   41.3001   11.7526 C.2     1  UNL1        0.2267
     12 O           7.3727   42.1765   12.5707 O.2     1  UNL1       -0.2747
     13 N           6.9482   40.9325   10.6327 N.am    1  UNL1       -0.2667
     14 H           7.3161   40.2772    9.9967 H       1  UNL1        0.1563
     15 C           5.6389   41.4486   10.3712 C.ar    1  UNL1        0.1761
     16 C           3.9859   42.6143    9.6129 C.ar    1  UNL1        0.1790
     17 C           3.2907   43.5872    8.9005 C.ar    1  UNL1        0.0517
     18 C           4.0474   44.4599    8.0940 C.ar    1  UNL1        0.0608
     19 C           5.4554   44.3366    8.0223 C.ar    1  UNL1        0.0117
     20 C           6.1279   43.3409    8.7563 C.ar    1  UNL1        0.0069
     21 C           5.3446   42.5006    9.5426 C.ar    1  UNL1        0.0721
     22 O           3.5131   41.6963   10.4228 O.2     1  UNL1       -0.3521
     23 N           4.4890   40.9681   10.9021 N.ar    1  UNL1       -0.0617
     24 CL          3.2387   45.7087    7.1723 Cl      1  UNL1       -0.0821
     25 C          13.1977   41.0422    7.1653 C.3     1  UNL1        0.1718
     26 C          14.3967   41.9275    7.2998 C.ar    1  UNL1        0.0044
     27 C          15.4871   41.4869    8.0584 C.ar    1  UNL1        0.0001
     28 C          16.6252   42.2886    8.1852 C.ar    1  UNL1        0.0294
     29 C          16.6771   43.5343    7.5528 C.ar    1  UNL1        0.1401
     30 C          15.5924   43.9780    6.7905 C.ar    1  UNL1        0.0294
     31 C          14.4540   43.1768    6.6630 C.ar    1  UNL1        0.0001
     32 F          17.7810   44.3095    7.6743 F       1  UNL1       -0.2042
     33 C          14.5359   38.4056    9.6765 C.3     1  UNL1        0.0946
     34 C          14.4608   39.6423    8.8568 C.2     1  UNL1        0.2235
     35 O          15.3924   40.4878    8.9167 O.2     1  UNL1       -0.2751
     36 N          13.3285   39.8629    8.0142 N.am    1  UNL1       -0.2950
     37 H          12.6078   39.1923    8.0059 H       1  UNL1        0.1501
@<TRIPOS>BOND
     1    33    34    1
     2    34    36   am
     3    25    36    1
     4    25     1    1
     5    25    26    1
     6     1    10   am
     7     2    10    1
     8     2     3    1
     9     3     4    1
    10     4     5    1
    11     4     7    1
    12     5     6    1
    13     6    11    1
    14     6     4    1
    15    11    13   am
    16    16    22   ar
    17    17    18   ar
    18    18    24    1
    19    19    20   ar
    20    21    15   ar
    21    21    16   ar
    22     7     8    1
    23     8    10    1
    24    27    28   ar
    25    29    32    1
    26    29    30   ar
    27    31    26   ar
    28    13    15    1
    29    23    22   ar
    30    34    35    2
    31     1     9    2
    32    11    12    2
    33    15    23   ar
    34    16    17   ar
    35    18    19   ar
    36    20    21   ar
    37    26    27   ar
    38    28    29   ar
    39    30    31   ar
    40    36    37    1
    41    13    14    1
@<TRIPOS>MOLECULE
MolPort-051-736-026
 37 41 0 0 0
SMALL
GASTEIGER

@<TRIPOS>ATOM
      1 C          10.5648   40.6004    9.8741 C.2     1  UNL1        0.2478
      2 C          11.6126   38.3293    9.6795 C.3     1  UNL1        0.0935
      3 C          12.6643   37.4245   10.3233 C.3     1  UNL1        0.0220
      4 C          13.9446   38.2202   10.5955 C.3     1  UNL1        0.0119
      5 C          15.0207   37.4015   11.2649 C.3     1  UNL1        0.0097
      6 C          15.2376   37.9127    9.8427 C.3     1  UNL1        0.0770
      7 C          13.8291   39.6338   11.1580 C.3     1  UNL1        0.0220
      8 C          12.3754   39.9533   11.4924 C.3     1  UNL1        0.0935
      9 O           9.8225   40.3241    8.8919 O.2     1  UNL1       -0.2727
     10 N          11.5137   39.6334   10.3506 N.am    1  UNL1       -0.2779
     11 C          15.0942   36.8018    8.8459 C.2     1  UNL1        0.2267
     12 O          14.3065   36.9426    7.8720 O.2     1  UNL1       -0.2747
     13 N          15.8900   35.6183    8.9776 N.am    1  UNL1       -0.2667
     14 H          16.5238   35.5757    9.7297 H       1  UNL1        0.1563
     15 C          15.8309   34.4930    8.0949 C.ar    1  UNL1        0.1761
     16 C          16.0384   33.1890    6.3853 C.ar    1  UNL1        0.1790
     17 C          16.3828   32.7507    5.1098 C.ar    1  UNL1        0.0517
     18 C          17.0433   33.6681    4.2691 C.ar    1  UNL1        0.0608
     19 C          17.3378   34.9767    4.7204 C.ar    1  UNL1        0.0117
     20 C          16.9753   35.3882    6.0172 C.ar    1  UNL1        0.0069
     21 C          16.3224   34.4532    6.8155 C.ar    1  UNL1        0.0721
     22 O          15.4253   32.5308    7.3408 O.2     1  UNL1       -0.3521
     23 N          15.2823   33.2915    8.3959 N.ar    1  UNL1       -0.0617
     24 CL         17.5038   33.1851    2.6513 Cl      1  UNL1       -0.0821
     25 C          10.4840   41.9657   10.5003 C.3     1  UNL1        0.1718
     26 C           9.3827   42.7736    9.8888 C.ar    1  UNL1        0.0044
     27 C           8.4313   42.1321    9.0877 C.ar    1  UNL1        0.0001
     28 C           7.3836   42.8623    8.5190 C.ar    1  UNL1        0.0294
     29 C           7.2833   44.2374    8.7503 C.ar    1  UNL1        0.1401
     30 C           8.2286   44.8828    9.5529 C.ar    1  UNL1        0.0294
     31 C           9.2765   44.1534   10.1221 C.ar    1  UNL1        0.0001
     32 F           6.2667   44.9436    8.2009 F       1  UNL1       -0.2042
     33 C           9.0573   41.2564   14.0373 C.3     1  UNL1        0.0946
     34 C           9.1679   41.2892   12.5561 C.2     1  UNL1        0.2235
     35 O           8.2500   40.7925   11.8510 O.2     1  UNL1       -0.2751
     36 N          10.3181   41.8780   11.9471 N.am    1  UNL1       -0.2950
     37 H          11.0273   42.2389   12.5269 H       1  UNL1        0.1501
@<TRIPOS>BOND
     1    33    34    1
     2    34    36   am
     3    25    36    1
     4    25     1    1
     5    25    26    1
     6     1    10   am
     7     2    10    1
     8     2     3    1
     9     3     4    1
    10     4     5    1
    11     4     7    1
    12     5     6    1
    13     6    11    1
    14     6     4    1
    15    11    13   am
    16    16    22   ar
    17    17    18   ar
    18    18    24    1
    19    19    20   ar
    20    21    15   ar
    21    21    16   ar
    22     7     8    1
    23     8    10    1
    24    27    28   ar
    25    29    32    1
    26    29    30   ar
    27    31    26   ar
    28    13    15    1
    29    23    22   ar
    30    34    35    2
    31     1     9    2
    32    11    12    2
    33    15    23   ar
    34    16    17   ar
    35    18    19   ar
    36    20    21   ar
    37    26    27   ar
    38    28    29   ar
    39    30    31   ar
    40    36    37    1
    41    13    14    1
@<TRIPOS>MOLECULE
MolPort-051-736-026
 37 41 0 0 0
SMALL
GASTEIGER

@<TRIPOS>ATOM
      1 C           9.5397   43.0939   10.5940 C.2     1  UNL1        0.2478
      2 C          11.2467   41.9406    9.1622 C.3     1  UNL1        0.0935
      3 C          11.4856   40.6596    8.3616 C.3     1  UNL1        0.0220
      4 C          11.0430   39.4411    9.1776 C.3     1  UNL1        0.0119
      5 C          11.2153   38.1375    8.4378 C.3     1  UNL1        0.0097
      6 C          12.0601   38.4174    9.6784 C.3     1  UNL1        0.0770
      7 C           9.7390   39.5156    9.9662 C.3     1  UNL1        0.0220
      8 C           9.0102   40.8208    9.6621 C.3     1  UNL1        0.0935
      9 O          10.3285   44.0709   10.7189 O.2     1  UNL1       -0.2727
     10 N           9.9266   41.9554    9.8086 N.am    1  UNL1       -0.2779
     11 C          13.4726   38.7506    9.3013 C.2     1  UNL1        0.2267
     12 O          14.0829   38.0158    8.4789 O.2     1  UNL1       -0.2747
     13 N          14.0946   39.9257    9.8339 N.am    1  UNL1       -0.2667
     14 H          13.5602   40.4917   10.4367 H       1  UNL1        0.1563
     15 C          15.4367   40.3367    9.5534 C.ar    1  UNL1        0.1761
     16 C          17.1669   41.3501    8.7499 C.ar    1  UNL1        0.1790
     17 C          17.9290   42.2321    7.9892 C.ar    1  UNL1        0.0517
     18 C          17.2362   43.1035    7.1257 C.ar    1  UNL1        0.0608
     19 C          15.8235   43.0701    7.0492 C.ar    1  UNL1        0.0117
     20 C          15.0825   42.1650    7.8330 C.ar    1  UNL1        0.0069
     21 C          15.8044   41.3198    8.6711 C.ar    1  UNL1        0.0721
     22 O          17.5735   40.4516    9.6158 O.2     1  UNL1       -0.3521
     23 N          16.5491   39.8165   10.1252 N.ar    1  UNL1       -0.0617
     24 CL         18.1310   44.2376    6.1379 Cl      1  UNL1       -0.0821
     25 C           8.2215   43.1113   11.3183 C.3     1  UNL1        0.1718
     26 C           7.1383   42.5106   10.4785 C.ar    1  UNL1        0.0044
     27 C           6.9245   43.0048    9.1868 C.ar    1  UNL1        0.0001
     28 C           5.9298   42.4490    8.3770 C.ar    1  UNL1        0.0294
     29 C           5.1454   41.3958    8.8563 C.ar    1  UNL1        0.1401
     30 C           5.3570   40.8954   10.1444 C.ar    1  UNL1        0.0294
     31 C           6.3516   41.4505   10.9548 C.ar    1  UNL1        0.0001
     32 F           4.1834   40.8563    8.0703 F       1  UNL1       -0.2042
     33 C           9.4611   40.9680   14.3047 C.3     1  UNL1        0.0946
     34 C           9.4481   41.6510   12.9855 C.2     1  UNL1        0.2235
     35 O          10.4393   41.5407   12.2162 O.2     1  UNL1       -0.2751
     36 N           8.3136   42.4317   12.6061 N.am    1  UNL1       -0.2950
     37 H           7.5639   42.5145   13.2388 H       1  UNL1        0.1501
@<TRIPOS>BOND
     1    33    34    1
     2    34    36   am
     3    25    36    1
     4    25     1    1
     5    25    26    1
     6     1    10   am
     7     2    10    1
     8     2     3    1
     9     3     4    1
    10     4     5    1
    11     4     7    1
    12     5     6    1
    13     6    11    1
    14     6     4    1
    15    11    13   am
    16    16    22   ar
    17    17    18   ar
    18    18    24    1
    19    19    20   ar
    20    21    15   ar
    21    21    16   ar
    22     7     8    1
    23     8    10    1
    24    27    28   ar
    25    29    32    1
    26    29    30   ar
    27    31    26   ar
    28    13    15    1
    29    23    22   ar
    30    34    35    2
    31     1     9    2
    32    11    12    2
    33    15    23   ar
    34    16    17   ar
    35    18    19   ar
    36    20    21   ar
    37    26    27   ar
    38    28    29   ar
    39    30    31   ar
    40    36    37    1
    41    13    14    1
@<TRIPOS>MOLECULE
MolPort-051-736-026
 37 41 0 0 0
SMALL
GASTEIGER

@<TRIPOS>ATOM
      1 C           6.8007   41.9525    9.3861 C.2     1  UNL1        0.2478
      2 C           9.2512   42.0912    8.8667 C.3     1  UNL1        0.0935
      3 C          10.2426   42.0710    7.7023 C.3     1  UNL1        0.0220
      4 C           9.8895   40.9390    6.7327 C.3     1  UNL1        0.0119
      5 C          10.8049   40.8769    5.5349 C.3     1  UNL1        0.0097
      6 C          10.8170   39.7388    6.5525 C.3     1  UNL1        0.0770
      7 C           8.4243   40.6991    6.3810 C.3     1  UNL1        0.0220
      8 C           7.5480   41.7879    6.9924 C.3     1  UNL1        0.0935
      9 O           7.0694   42.0891   10.6114 O.2     1  UNL1       -0.2727
     10 N           7.8596   41.9452    8.4160 N.am    1  UNL1       -0.2779
     11 C          12.0433   39.8019    7.4131 C.2     1  UNL1        0.2267
     12 O          12.2180   38.9293    8.3058 O.2     1  UNL1       -0.2747
     13 N          13.0276   40.8155    7.1787 N.am    1  UNL1       -0.2667
     14 H          12.8668   41.4459    6.4398 H       1  UNL1        0.1563
     15 C          14.2283   40.9785    7.9408 C.ar    1  UNL1        0.1761
     16 C          15.9161   40.6353    9.2445 C.ar    1  UNL1        0.1790
     17 C          16.7832   39.9824   10.1159 C.ar    1  UNL1        0.0517
     18 C          16.4720   38.6518   10.4585 C.ar    1  UNL1        0.0608
     19 C          15.3218   38.0208    9.9277 C.ar    1  UNL1        0.0117
     20 C          14.4653   38.7102    9.0482 C.ar    1  UNL1        0.0069
     21 C          14.8064   40.0234    8.7367 C.ar    1  UNL1        0.0721
     22 O          15.9882   41.8611    8.7815 O.2     1  UNL1       -0.3521
     23 N          14.9792   42.1051    7.9848 N.ar    1  UNL1       -0.0617
     24 CL         17.5174   37.7709   11.5512 Cl      1  UNL1       -0.0821
     25 C           5.3730   41.7426    8.9618 C.3     1  UNL1        0.1718
     26 C           4.4678   41.6439   10.1493 C.ar    1  UNL1        0.0044
     27 C           3.4949   42.6301   10.3481 C.ar    1  UNL1        0.0001
     28 C           2.6266   42.5511   11.4408 C.ar    1  UNL1        0.0294
     29 C           2.7279   41.4844   12.3388 C.ar    1  UNL1        0.1401
     30 C           3.6953   40.4943   12.1431 C.ar    1  UNL1        0.0294
     31 C           4.5639   40.5725   11.0506 C.ar    1  UNL1        0.0001
     32 F           1.8848   41.4073   13.3959 F       1  UNL1       -0.2042
     33 C           4.7186   45.1983    7.3251 C.3     1  UNL1        0.0946
     34 C           5.2275   44.1768    8.2762 C.2     1  UNL1        0.2235
     35 O           5.9245   44.5349    9.2623 O.2     1  UNL1       -0.2751
     36 N           4.9265   42.7974    8.0582 N.am    1  UNL1       -0.2950
     37 H           4.3965   42.5487    7.2666 H       1  UNL1        0.1501
@<TRIPOS>BOND
     1    33    34    1
     2    34    36   am
     3    25    36    1
     4    25     1    1
     5    25    26    1
     6     1    10   am
     7     2    10    1
     8     2     3    1
     9     3     4    1
    10     4     5    1
    11     4     7    1
    12     5     6    1
    13     6    11    1
    14     6     4    1
    15    11    13   am
    16    16    22   ar
    17    17    18   ar
    18    18    24    1
    19    19    20   ar
    20    21    15   ar
    21    21    16   ar
    22     7     8    1
    23     8    10    1
    24    27    28   ar
    25    29    32    1
    26    29    30   ar
    27    31    26   ar
    28    13    15    1
    29    23    22   ar
    30    34    35    2
    31     1     9    2
    32    11    12    2
    33    15    23   ar
    34    16    17   ar
    35    18    19   ar
    36    20    21   ar
    37    26    27   ar
    38    28    29   ar
    39    30    31   ar
    40    36    37    1
    41    13    14    1
@<TRIPOS>MOLECULE
MolPort-051-736-026
 37 41 0 0 0
SMALL
GASTEIGER

@<TRIPOS>ATOM
      1 C          13.3312   40.0502    9.7372 C.2     1  UNL1        0.2478
      2 C          10.8520   40.3432    9.4891 C.3     1  UNL1        0.0935
      3 C           9.7071   40.1578    8.4921 C.3     1  UNL1        0.0220
      4 C          10.1173   40.6938    7.1171 C.3     1  UNL1        0.0119
      5 C           9.0488   40.5134    6.0673 C.3     1  UNL1        0.0097
      6 C           9.4353   41.9209    6.5151 C.3     1  UNL1        0.0770
      7 C          11.5223   40.3998    6.5998 C.3     1  UNL1        0.0220
      8 C          12.2485   39.4523    7.5495 C.3     1  UNL1        0.0935
      9 O          13.2462   40.4741   10.9226 O.2     1  UNL1       -0.2727
     10 N          12.1506   39.9460    8.9262 N.am    1  UNL1       -0.2779
     11 C           8.3806   42.5095    7.4037 C.2     1  UNL1        0.2267
     12 O           8.7221   43.0817    8.4736 O.2     1  UNL1       -0.2747
     13 N           7.0058   42.4652    7.0046 N.am    1  UNL1       -0.2667
     14 H           6.7952   42.0478    6.1382 H       1  UNL1        0.1563
     15 C           5.9159   42.9839    7.7740 C.ar    1  UNL1        0.1761
     16 C           4.3638   43.2415    9.2541 C.ar    1  UNL1        0.1790
     17 C           3.5426   42.9776   10.3466 C.ar    1  UNL1        0.0517
     18 C           3.7650   41.7743   11.0447 C.ar    1  UNL1        0.0608
     19 C           4.7869   40.8835   10.6385 C.ar    1  UNL1        0.0117
     20 C           5.6001   41.1810    9.5283 C.ar    1  UNL1        0.0069
     21 C           5.3467   42.3780    8.8644 C.ar    1  UNL1        0.0721
     22 O           4.3540   44.2810    8.4532 O.2     1  UNL1       -0.3521
     23 N           5.2846   44.1597    7.5413 N.ar    1  UNL1       -0.0617
     24 CL          2.7680   41.3772   12.4271 Cl      1  UNL1       -0.0821
     25 C          14.6820   39.7107    9.1690 C.3     1  UNL1        0.1718
     26 C          15.3684   40.9333    8.6461 C.ar    1  UNL1        0.0044
     27 C          14.7099   41.7351    7.7069 C.ar    1  UNL1        0.0001
     28 C          15.3235   42.8912    7.2159 C.ar    1  UNL1        0.0294
     29 C          16.5984   43.2502    7.6635 C.ar    1  UNL1        0.1401
     30 C          17.2593   42.4552    8.6045 C.ar    1  UNL1        0.0294
     31 C          16.6464   41.2990    9.0961 C.ar    1  UNL1        0.0001
     32 F          17.1912   44.3717    7.1891 F       1  UNL1       -0.2042
     33 C          17.0522   37.1852   10.9164 C.3     1  UNL1        0.0946
     34 C          16.2403   37.8353    9.8557 C.2     1  UNL1        0.2235
     35 O          16.2016   37.3306    8.7023 O.2     1  UNL1       -0.2751
     36 N          15.5171   39.0308   10.1534 N.am    1  UNL1       -0.2950
     37 H          15.5849   39.4110   11.0590 H       1  UNL1        0.1501
@<TRIPOS>BOND
     1    33    34    1
     2    34    36   am
     3    25    36    1
     4    25     1    1
     5    25    26    1
     6     1    10   am
     7     2    10    1
     8     2     3    1
     9     3     4    1
    10     4     5    1
    11     4     7    1
    12     5     6    1
    13     6    11    1
    14     6     4    1
    15    11    13   am
    16    16    22   ar
    17    17    18   ar
    18    18    24    1
    19    19    20   ar
    20    21    15   ar
    21    21    16   ar
    22     7     8    1
    23     8    10    1
    24    27    28   ar
    25    29    32    1
    26    29    30   ar
    27    31    26   ar
    28    13    15    1
    29    23    22   ar
    30    34    35    2
    31     1     9    2
    32    11    12    2
    33    15    23   ar
    34    16    17   ar
    35    18    19   ar
    36    20    21   ar
    37    26    27   ar
    38    28    29   ar
    39    30    31   ar
    40    36    37    1
    41    13    14    1
@<TRIPOS>MOLECULE
MolPort-051-736-026
 37 41 0 0 0
SMALL
GASTEIGER

@<TRIPOS>ATOM
      1 C          13.9418   39.8899    9.7514 C.2     1  UNL1        0.2478
      2 C          11.4339   39.9191    9.6960 C.3     1  UNL1        0.0935
      3 C          10.2436   39.7224    8.7559 C.3     1  UNL1        0.0220
      4 C          10.4881   40.4642    7.4382 C.3     1  UNL1        0.0119
      5 C           9.3691   40.2877    6.4418 C.3     1  UNL1        0.0097
      6 C           9.6338   41.6666    7.0414 C.3     1  UNL1        0.0770
      7 C          11.8735   40.4006    6.8020 C.3     1  UNL1        0.0220
      8 C          12.7678   39.4371    7.5760 C.3     1  UNL1        0.0935
      9 O          13.9014   40.1553   10.9843 O.2     1  UNL1       -0.2727
     10 N          12.7214   39.7468    9.0080 N.am    1  UNL1       -0.2779
     11 C           8.5919   42.0169    8.0613 C.2     1  UNL1        0.2267
     12 O           7.8697   43.0345    7.8833 O.2     1  UNL1       -0.2747
     13 N           8.3900   41.1661    9.1956 N.am    1  UNL1       -0.2667
     14 H           8.9485   40.3584    9.2657 H       1  UNL1        0.1563
     15 C           7.4350   41.4050   10.2349 C.ar    1  UNL1        0.1761
     16 C           5.5959   41.6851   11.3327 C.ar    1  UNL1        0.1790
     17 C           4.2328   41.7893   11.5946 C.ar    1  UNL1        0.0517
     18 C           3.3524   41.6159   10.5085 C.ar    1  UNL1        0.0608
     19 C           3.8515   41.3461    9.2120 C.ar    1  UNL1        0.0117
     20 C           5.2369   41.2471    8.9814 C.ar    1  UNL1        0.0069
     21 C           6.0728   41.4271   10.0799 C.ar    1  UNL1        0.0721
     22 O           6.6025   41.8055   12.1661 O.2     1  UNL1       -0.3521
     23 N           7.7365   41.6406   11.5343 N.ar    1  UNL1       -0.0617
     24 CL          1.6254   41.7357   10.7648 Cl      1  UNL1       -0.0821
     25 C          15.2745   39.7813    9.0623 C.3     1  UNL1        0.1718
     26 C          15.7436   41.1195    8.5842 C.ar    1  UNL1        0.0044
     27 C          16.9902   41.5952    9.0063 C.ar    1  UNL1        0.0001
     28 C          17.4575   42.8348    8.5602 C.ar    1  UNL1        0.0294
     29 C          16.6795   43.6032    7.6892 C.ar    1  UNL1        0.1401
     30 C          15.4351   43.1314    7.2611 C.ar    1  UNL1        0.0294
     31 C          14.9671   41.8918    7.7066 C.ar    1  UNL1        0.0001
     32 F          17.1341   44.8031    7.2556 F       1  UNL1       -0.2042
     33 C          17.6829   37.2339   10.7235 C.3     1  UNL1        0.0946
     34 C          16.6778   37.8012    9.7882 C.2     1  UNL1        0.2235
     35 O          16.1968   37.0782    8.8758 O.2     1  UNL1       -0.2751
     36 N          16.2724   39.1637    9.9293 N.am    1  UNL1       -0.2950
     37 H          16.6827   39.7077   10.6399 H       1  UNL1        0.1501
@<TRIPOS>BOND
     1    33    34    1
     2    34    36   am
     3    25    36    1
     4    25     1    1
     5    25    26    1
     6     1    10   am
     7     2    10    1
     8     2     3    1
     9     3     4    1
    10     4     5    1
    11     4     7    1
    12     5     6    1
    13     6    11    1
    14     6     4    1
    15    11    13   am
    16    16    22   ar
    17    17    18   ar
    18    18    24    1
    19    19    20   ar
    20    21    15   ar
    21    21    16   ar
    22     7     8    1
    23     8    10    1
    24    27    28   ar
    25    29    32    1
    26    29    30   ar
    27    31    26   ar
    28    13    15    1
    29    23    22   ar
    30    34    35    2
    31     1     9    2
    32    11    12    2
    33    15    23   ar
    34    16    17   ar
    35    18    19   ar
    36    20    21   ar
    37    26    27   ar
    38    28    29   ar
    39    30    31   ar
    40    36    37    1
    41    13    14    1
@<TRIPOS>MOLECULE
MolPort-051-736-026
 37 41 0 0 0
SMALL
GASTEIGER

@<TRIPOS>ATOM
      1 C          12.7006   39.8969    8.1009 C.2     1  UNL1        0.2478
      2 C          13.8189   37.7733    8.8315 C.3     1  UNL1        0.0935
      3 C          14.6761   37.1826    9.9519 C.3     1  UNL1        0.0220
      4 C          15.8119   38.1471   10.3070 C.3     1  UNL1        0.0119
      5 C          16.6835   37.6482   11.4330 C.3     1  UNL1        0.0097
      6 C          17.2693   37.7833   10.0296 C.3     1  UNL1        0.0770
      7 C          15.5106   39.6401   10.3979 C.3     1  UNL1        0.0220
      8 C          14.0133   39.8883   10.2439 C.3     1  UNL1        0.0935
      9 O          12.2636   39.2966    7.0807 O.2     1  UNL1       -0.2727
     10 N          13.5065   39.1918    9.0580 N.am    1  UNL1       -0.2779
     11 C          17.4332   36.4393    9.3853 C.2     1  UNL1        0.2267
     12 O          17.8848   35.4786   10.0648 O.2     1  UNL1       -0.2747
     13 N          17.0260   36.2457    8.0258 N.am    1  UNL1       -0.2667
     14 H          16.6367   37.0158    7.5518 H       1  UNL1        0.1563
     15 C          17.1440   35.0139    7.3064 C.ar    1  UNL1        0.1761
     16 C          17.4443   33.5443    5.7519 C.ar    1  UNL1        0.1790
     17 C          17.7052   33.0053    4.4954 C.ar    1  UNL1        0.0517
     18 C          17.9662   33.9099    3.4473 C.ar    1  UNL1        0.0608
     19 C          17.9606   35.3056    3.6815 C.ar    1  UNL1        0.0117
     20 C          17.6927   35.8178    4.9653 C.ar    1  UNL1        0.0069
     21 C          17.4375   34.8915    5.9726 C.ar    1  UNL1        0.0721
     22 O          17.1754   32.9176    6.8732 O.2     1  UNL1       -0.3521
     23 N          16.9878   33.7788    7.8403 N.ar    1  UNL1       -0.0617
     24 CL         18.3002   33.3020    1.8406 Cl      1  UNL1       -0.0821
     25 C          12.4164   41.3639    8.2732 C.3     1  UNL1        0.1718
     26 C          13.3971   42.1954    7.5077 C.ar    1  UNL1        0.0044
     27 C          14.7664   42.0112    7.7301 C.ar    1  UNL1        0.0001
     28 C          15.7025   42.7641    7.0153 C.ar    1  UNL1        0.0294
     29 C          15.2721   43.7040    6.0742 C.ar    1  UNL1        0.1401
     30 C          13.9055   43.8897    5.8449 C.ar    1  UNL1        0.0294
     31 C          12.9689   43.1371    6.5592 C.ar    1  UNL1        0.0001
     32 F          16.1797   44.4315    5.3803 F       1  UNL1       -0.2042
     33 C           9.1549   41.8571    6.2316 C.3     1  UNL1        0.0946
     34 C          10.5533   41.4791    6.5608 C.2     1  UNL1        0.2235
     35 O          11.2878   40.9711    5.6725 O.2     1  UNL1       -0.2751
     36 N          11.0485   41.6896    7.8842 N.am    1  UNL1       -0.2950
     37 H          10.4424   42.0696    8.5606 H       1  UNL1        0.1501
@<TRIPOS>BOND
     1    33    34    1
     2    34    36   am
     3    25    36    1
     4    25     1    1
     5    25    26    1
     6     1    10   am
     7     2    10    1
     8     2     3    1
     9     3     4    1
    10     4     5    1
    11     4     7    1
    12     5     6    1
    13     6    11    1
    14     6     4    1
    15    11    13   am
    16    16    22   ar
    17    17    18   ar
    18    18    24    1
    19    19    20   ar
    20    21    15   ar
    21    21    16   ar
    22     7     8    1
    23     8    10    1
    24    27    28   ar
    25    29    32    1
    26    29    30   ar
    27    31    26   ar
    28    13    15    1
    29    23    22   ar
    30    34    35    2
    31     1     9    2
    32    11    12    2
    33    15    23   ar
    34    16    17   ar
    35    18    19   ar
    36    20    21   ar
    37    26    27   ar
    38    28    29   ar
    39    30    31   ar
    40    36    37    1
    41    13    14    1
