@<TRIPOS>MOLECULE
MolPort-007-776-367 ChemDiv-E957-1576 MCULE-1285197482 PubChem-20926064 ZINC000009265415
 34 37 0 0 0
SMALL
GASTEIGER

@<TRIPOS>ATOM
      1 C          14.0236   40.8968    9.1599 C.ar    1  UNL1        0.2118
      2 C          14.9948   42.0957    7.6904 C.ar    1  UNL1        0.1468
      3 C          13.6520   42.3095    7.5018 C.ar    1  UNL1        0.0512
      4 C          13.1798   43.2175    6.5552 C.ar    1  UNL1        0.0044
      5 C          14.1295   43.8877    5.7637 C.ar    1  UNL1        0.0002
      6 C          15.5092   43.6487    5.9422 C.ar    1  UNL1        0.0031
      7 C          15.9579   42.7439    6.9208 C.ar    1  UNL1        0.0375
      8 C          13.0099   41.5242    8.4382 C.ar    1  UNL1        0.0931
      9 O          15.2004   41.2514    8.6735 O.2     1  UNL1       -0.4476
     10 C          10.8453   42.4301    9.4453 C.2     1  UNL1        0.2496
     11 O          11.3073   43.5890    9.6266 O.2     1  UNL1       -0.2698
     12 N          11.6073   41.4520    8.7274 N.am    1  UNL1       -0.2778
     13 H          11.1239   40.6581    8.4031 H       1  UNL1        0.1553
     14 C           9.4923   42.0972    9.9238 C.ar    1  UNL1        0.0537
     15 C           8.4470   41.8892    9.0113 C.ar    1  UNL1        0.0042
     16 C           7.1633   41.5745    9.4668 C.ar    1  UNL1       -0.0041
     17 C           6.9154   41.4660   10.8379 C.ar    1  UNL1       -0.0218
     18 C           7.9506   41.6723   11.7535 C.ar    1  UNL1       -0.0041
     19 C           9.2343   41.9869   11.2981 C.ar    1  UNL1        0.0042
     20 C           5.5508   41.1316   11.3220 C.3     1  UNL1        0.0310
     21 C          13.8430   39.9639   10.2933 C.2     1  UNL1        0.2854
     22 O          12.7027   39.8555   10.8210 O.2     1  UNL1       -0.2665
     23 N          14.9333   39.1660   10.7972 N.am    1  UNL1       -0.2650
     24 C          16.3268   39.5038   10.5385 C.3     1  UNL1        0.1115
     25 C          17.2327   38.3133   10.8757 C.3     1  UNL1        0.0940
     26 C          19.4302   38.5653    9.9655 C.3     1  UNL1        0.0897
     27 C          18.3259   36.4896    9.7829 C.3     1  UNL1        0.0897
     28 N          18.1324   37.9324    9.7818 N.3     1  UNL1       -0.2688
     29 C          14.6731   38.0144   11.6522 C.3     1  UNL1        0.1586
     30 C          14.1164   36.8877   10.8492 C.ar    1  UNL1        0.1430
     31 C          12.8256   36.4165   10.9337 C.ar    1  UNL1        0.0379
     32 C          12.7780   35.3647   10.0350 C.ar    1  UNL1        0.0435
     33 C          14.0392   35.2667    9.4713 C.ar    1  UNL1        0.1792
     34 O          14.8107   36.1934    9.9859 O.2     1  UNL1       -0.4530
@<TRIPOS>BOND
     1     1    21    1
     2     1     9   ar
     3    21    23   am
     4    24    23    1
     5    24    25    1
     6    25    28    1
     7    26    28    1
     8    27    28    1
     9    29    23    1
    10    29    30    1
    11    30    34   ar
    12    31    32   ar
    13    33    34   ar
    14     2     9   ar
    15     3     4   ar
    16     3     8   ar
    17     5     6   ar
    18     7     2   ar
    19     8    12    1
    20    10    14    1
    21    15    16   ar
    22    17    18   ar
    23    19    14   ar
    24    20    17    1
    25    12    10   am
    26    21    22    2
    27    30    31   ar
    28    32    33   ar
    29     2     3   ar
    30     4     5   ar
    31     6     7   ar
    32     8     1   ar
    33    10    11    2
    34    14    15   ar
    35    16    17   ar
    36    18    19   ar
    37    12    13    1
@<TRIPOS>MOLECULE
MolPort-007-776-367 ChemDiv-E957-1576 MCULE-1285197482 PubChem-20926064 ZINC000009265415
 34 37 0 0 0
SMALL
GASTEIGER

@<TRIPOS>ATOM
      1 C          12.8337   42.5024    6.9256 C.ar    1  UNL1        0.2118
      2 C          14.6538   43.5796    6.6670 C.ar    1  UNL1        0.1468
      3 C          14.9788   42.5046    7.4564 C.ar    1  UNL1        0.0512
      4 C          16.2911   42.2600    7.8585 C.ar    1  UNL1        0.0044
      5 C          17.2778   43.1788    7.4584 C.ar    1  UNL1        0.0002
      6 C          16.9381   44.2970    6.6668 C.ar    1  UNL1        0.0031
      7 C          15.6093   44.5062    6.2568 C.ar    1  UNL1        0.0375
      8 C          13.8029   41.8066    7.6457 C.ar    1  UNL1        0.0931
      9 O          13.3772   43.5686    6.3643 O.2     1  UNL1       -0.4476
     10 C          12.7939   39.4703    7.8565 C.2     1  UNL1        0.2496
     11 O          12.4080   39.4293    6.6570 O.2     1  UNL1       -0.2698
     12 N          13.6101   40.5542    8.3168 N.am    1  UNL1       -0.2778
     13 H          14.0814   40.4275    9.1718 H       1  UNL1        0.1553
     14 C          12.4522   38.3700    8.7746 C.ar    1  UNL1        0.0537
     15 C          13.4633   37.5966    9.3643 C.ar    1  UNL1        0.0042
     16 C          13.1375   36.5519   10.2344 C.ar    1  UNL1       -0.0041
     17 C          11.7984   36.2728   10.5206 C.ar    1  UNL1       -0.0218
     18 C          10.7851   37.0378    9.9369 C.ar    1  UNL1       -0.0041
     19 C          11.1108   38.0824    9.0670 C.ar    1  UNL1        0.0042
     20 C          11.4521   35.1623   11.4454 C.3     1  UNL1        0.0310
     21 C          11.4064   42.1364    6.7987 C.2     1  UNL1        0.2854
     22 O          10.9342   41.9018    5.6530 O.2     1  UNL1       -0.2665
     23 N          10.5484   42.0264    7.9524 N.am    1  UNL1       -0.2650
     24 C          10.8774   42.6510    9.2269 C.3     1  UNL1        0.1115
     25 C          10.3477   41.7998   10.3874 C.3     1  UNL1        0.0940
     26 C           9.2508   43.8856   10.7971 C.3     1  UNL1        0.0897
     27 C           8.1580   41.8687   11.3445 C.3     1  UNL1        0.0897
     28 N           9.4531   42.5312   11.2907 N.3     1  UNL1       -0.2688
     29 C           9.2704   41.3315    7.8597 C.3     1  UNL1        0.1586
     30 C           8.2358   42.2259    7.2648 C.ar    1  UNL1        0.1430
     31 C           7.6712   43.3126    7.8938 C.ar    1  UNL1        0.0379
     32 C           6.7588   43.8106    6.9797 C.ar    1  UNL1        0.0435
     33 C           6.8284   42.9933    5.8638 C.ar    1  UNL1        0.1792
     34 O           7.7214   42.0569    6.0747 O.2     1  UNL1       -0.4530
@<TRIPOS>BOND
     1     1    21    1
     2     1     9   ar
     3    21    23   am
     4    24    23    1
     5    24    25    1
     6    25    28    1
     7    26    28    1
     8    27    28    1
     9    29    23    1
    10    29    30    1
    11    30    34   ar
    12    31    32   ar
    13    33    34   ar
    14     2     9   ar
    15     3     4   ar
    16     3     8   ar
    17     5     6   ar
    18     7     2   ar
    19     8    12    1
    20    10    14    1
    21    15    16   ar
    22    17    18   ar
    23    19    14   ar
    24    20    17    1
    25    12    10   am
    26    21    22    2
    27    30    31   ar
    28    32    33   ar
    29     2     3   ar
    30     4     5   ar
    31     6     7   ar
    32     8     1   ar
    33    10    11    2
    34    14    15   ar
    35    16    17   ar
    36    18    19   ar
    37    12    13    1
@<TRIPOS>MOLECULE
MolPort-007-776-367 ChemDiv-E957-1576 MCULE-1285197482 PubChem-20926064 ZINC000009265415
 34 37 0 0 0
SMALL
GASTEIGER

@<TRIPOS>ATOM
      1 C          11.0469   40.6427    9.6234 C.ar    1  UNL1        0.2118
      2 C          11.1524   38.5228    9.8093 C.ar    1  UNL1        0.1468
      3 C          12.4241   38.9206    9.4793 C.ar    1  UNL1        0.0512
      4 C          13.4791   38.0127    9.3997 C.ar    1  UNL1        0.0044
      5 C          13.1911   36.6561    9.6328 C.ar    1  UNL1        0.0002
      6 C          11.8780   36.2453    9.9483 C.ar    1  UNL1        0.0031
      7 C          10.8375   37.1865   10.0442 C.ar    1  UNL1        0.0375
      8 C          12.3656   40.2927    9.3392 C.ar    1  UNL1        0.0931
      9 O          10.3449   39.5541    9.8859 O.2     1  UNL1       -0.4476
     10 C          13.9230   41.6129    7.8055 C.2     1  UNL1        0.2496
     11 O          13.2282   41.4095    6.7733 O.2     1  UNL1       -0.2698
     12 N          13.4412   41.2084    9.0927 N.am    1  UNL1       -0.2778
     13 H          13.8895   41.5942    9.8797 H       1  UNL1        0.1553
     14 C          15.2101   42.3209    7.6950 C.ar    1  UNL1        0.0537
     15 C          15.3308   43.4521    6.8738 C.ar    1  UNL1        0.0042
     16 C          16.5532   44.1224    6.7689 C.ar    1  UNL1       -0.0041
     17 C          17.6638   43.6661    7.4839 C.ar    1  UNL1       -0.0218
     18 C          17.5526   42.5398    8.3035 C.ar    1  UNL1       -0.0041
     19 C          16.3303   41.8696    8.4085 C.ar    1  UNL1        0.0042
     20 C          18.9632   44.3784    7.3723 C.3     1  UNL1        0.0310
     21 C          10.4859   42.0112    9.6278 C.2     1  UNL1        0.2854
     22 O          11.2278   42.9779    9.3030 O.2     1  UNL1       -0.2665
     23 N           9.1102   42.2633    9.9786 N.am    1  UNL1       -0.2650
     24 C           8.3138   41.3059   10.7349 C.3     1  UNL1        0.1115
     25 C           6.8932   41.8447   10.9434 C.3     1  UNL1        0.0940
     26 C           4.7714   40.8851   11.4894 C.3     1  UNL1        0.0897
     27 C           5.2860   41.3677    9.2391 C.3     1  UNL1        0.0897
     28 N           5.8441   40.9177   10.5060 N.3     1  UNL1       -0.2688
     29 C           8.4819   43.5344    9.6401 C.3     1  UNL1        0.1586
     30 C           7.8242   43.4482    8.3044 C.ar    1  UNL1        0.1430
     31 C           8.1634   42.5585    7.3101 C.ar    1  UNL1        0.0379
     32 C           7.3130   42.8651    6.2617 C.ar    1  UNL1        0.0435
     33 C           6.5212   43.9185    6.6877 C.ar    1  UNL1        0.1792
     34 O           6.8593   44.2390    7.9132 O.2     1  UNL1       -0.4530
@<TRIPOS>BOND
     1     1    21    1
     2     1     9   ar
     3    21    23   am
     4    24    23    1
     5    24    25    1
     6    25    28    1
     7    26    28    1
     8    27    28    1
     9    29    23    1
    10    29    30    1
    11    30    34   ar
    12    31    32   ar
    13    33    34   ar
    14     2     9   ar
    15     3     4   ar
    16     3     8   ar
    17     5     6   ar
    18     7     2   ar
    19     8    12    1
    20    10    14    1
    21    15    16   ar
    22    17    18   ar
    23    19    14   ar
    24    20    17    1
    25    12    10   am
    26    21    22    2
    27    30    31   ar
    28    32    33   ar
    29     2     3   ar
    30     4     5   ar
    31     6     7   ar
    32     8     1   ar
    33    10    11    2
    34    14    15   ar
    35    16    17   ar
    36    18    19   ar
    37    12    13    1
@<TRIPOS>MOLECULE
MolPort-007-776-367 ChemDiv-E957-1576 MCULE-1285197482 PubChem-20926064 ZINC000009265415
 34 37 0 0 0
SMALL
GASTEIGER

@<TRIPOS>ATOM
      1 C           9.2254   41.1936    6.7582 C.ar    1  UNL1        0.2118
      2 C           9.0213   39.8358    5.1290 C.ar    1  UNL1        0.1468
      3 C          10.3735   40.0137    5.2842 C.ar    1  UNL1        0.0512
      4 C          11.2989   39.3154    4.5098 C.ar    1  UNL1        0.0044
      5 C          10.7999   38.4415    3.5275 C.ar    1  UNL1        0.0002
      6 C           9.4088   38.2778    3.3526 C.ar    1  UNL1        0.0031
      7 C           8.4984   38.9784    4.1639 C.ar    1  UNL1        0.0375
      8 C          10.5191   40.9059    6.3276 C.ar    1  UNL1        0.0931
      9 O           8.3523   40.5459    6.0063 O.2     1  UNL1       -0.4476
     10 C          12.7060   42.2238    6.3667 C.2     1  UNL1        0.2496
     11 O          12.4206   42.9040    5.3443 O.2     1  UNL1       -0.2698
     12 N          11.7295   41.3542    6.9523 N.am    1  UNL1       -0.2778
     13 H          11.9055   41.0354    7.8670 H       1  UNL1        0.1553
     14 C          14.0303   42.3667    6.9961 C.ar    1  UNL1        0.0537
     15 C          14.4712   41.4312    7.9442 C.ar    1  UNL1        0.0042
     16 C          15.7276   41.5687    8.5416 C.ar    1  UNL1       -0.0041
     17 C          16.5520   42.6427    8.1956 C.ar    1  UNL1       -0.0218
     18 C          16.1204   43.5794    7.2527 C.ar    1  UNL1       -0.0041
     19 C          14.8640   43.4420    6.6553 C.ar    1  UNL1        0.0042
     20 C          17.8876   42.7889    8.8307 C.3     1  UNL1        0.0310
     21 C           8.8531   42.0900    7.8742 C.2     1  UNL1        0.2854
     22 O           9.7141   42.8918    8.3284 O.2     1  UNL1       -0.2665
     23 N           7.5279   42.0798    8.4426 N.am    1  UNL1       -0.2650
     24 C           6.6195   40.9533    8.2738 C.3     1  UNL1        0.1115
     25 C           5.2735   41.2518    8.9455 C.3     1  UNL1        0.0940
     26 C           5.6227   41.2884   11.3115 C.3     1  UNL1        0.0897
     27 C           3.6468   40.3397   10.4412 C.3     1  UNL1        0.0897
     28 N           5.0710   40.5238   10.2025 N.3     1  UNL1       -0.2688
     29 C           7.0719   43.1862    9.2748 C.3     1  UNL1        0.1586
     30 C           5.9267   43.8862    8.6248 C.ar    1  UNL1        0.1430
     31 C           5.9521   44.4497    7.3689 C.ar    1  UNL1        0.0379
     32 C           4.6920   44.9992    7.2068 C.ar    1  UNL1        0.0435
     33 C           3.9913   44.7366    8.3722 C.ar    1  UNL1        0.1792
     34 O           4.7649   44.0713    9.1954 O.2     1  UNL1       -0.4530
@<TRIPOS>BOND
     1     1    21    1
     2     1     9   ar
     3    21    23   am
     4    24    23    1
     5    24    25    1
     6    25    28    1
     7    26    28    1
     8    27    28    1
     9    29    23    1
    10    29    30    1
    11    30    34   ar
    12    31    32   ar
    13    33    34   ar
    14     2     9   ar
    15     3     4   ar
    16     3     8   ar
    17     5     6   ar
    18     7     2   ar
    19     8    12    1
    20    10    14    1
    21    15    16   ar
    22    17    18   ar
    23    19    14   ar
    24    20    17    1
    25    12    10   am
    26    21    22    2
    27    30    31   ar
    28    32    33   ar
    29     2     3   ar
    30     4     5   ar
    31     6     7   ar
    32     8     1   ar
    33    10    11    2
    34    14    15   ar
    35    16    17   ar
    36    18    19   ar
    37    12    13    1
@<TRIPOS>MOLECULE
MolPort-007-776-367 ChemDiv-E957-1576 MCULE-1285197482 PubChem-20926064 ZINC000009265415
 34 37 0 0 0
SMALL
GASTEIGER

@<TRIPOS>ATOM
      1 C          15.1501   40.6457    9.2394 C.ar    1  UNL1        0.2118
      2 C          16.6084   42.0168    8.5090 C.ar    1  UNL1        0.1468
      3 C          15.5181   42.1784    7.6907 C.ar    1  UNL1        0.0512
      4 C          15.4939   43.1413    6.6827 C.ar    1  UNL1        0.0044
      5 C          16.6472   43.9256    6.5022 C.ar    1  UNL1        0.0002
      6 C          17.7766   43.7417    7.3287 C.ar    1  UNL1        0.0031
      7 C          17.7643   42.7779    8.3528 C.ar    1  UNL1        0.0375
      8 C          14.5706   41.2823    8.1435 C.ar    1  UNL1        0.0931
      9 O          16.3780   41.1007    9.4195 O.2     1  UNL1       -0.4476
     10 C          12.1346   42.0194    7.9355 C.2     1  UNL1        0.2496
     11 O          12.3629   43.1979    8.3207 O.2     1  UNL1       -0.2698
     12 N          13.2190   41.1144    7.6950 N.am    1  UNL1       -0.2778
     13 H          13.0179   40.3035    7.1743 H       1  UNL1        0.1553
     14 C          10.7500   41.5881    7.6763 C.ar    1  UNL1        0.0537
     15 C           9.8377   41.4539    8.7337 C.ar    1  UNL1        0.0042
     16 C           8.5244   41.0434    8.4864 C.ar    1  UNL1       -0.0041
     17 C           8.1140   40.7635    7.1802 C.ar    1  UNL1       -0.0218
     18 C           9.0165   40.8939    6.1213 C.ar    1  UNL1       -0.0041
     19 C          10.3297   41.3045    6.3685 C.ar    1  UNL1        0.0042
     20 C           6.7181   40.3270    6.9173 C.3     1  UNL1        0.0310
     21 C          14.5188   39.6088   10.0841 C.2     1  UNL1        0.2854
     22 O          13.7991   39.9659   11.0562 O.2     1  UNL1       -0.2665
     23 N          14.6936   38.2032    9.8134 N.am    1  UNL1       -0.2650
     24 C          15.7917   37.7003    8.9985 C.3     1  UNL1        0.1115
     25 C          16.9894   37.3404    9.8860 C.3     1  UNL1        0.0940
     26 C          18.7141   38.8545   10.5600 C.3     1  UNL1        0.0897
     27 C          19.2574   36.9971    9.2122 C.3     1  UNL1        0.0897
     28 N          18.2366   37.9989    9.4835 N.3     1  UNL1       -0.2688
     29 C          13.8010   37.2185   10.4120 C.3     1  UNL1        0.1586
     30 C          12.4167   37.3836    9.8821 C.ar    1  UNL1        0.1430
     31 C          11.3077   36.7072   10.3380 C.ar    1  UNL1        0.0379
     32 C          10.2701   37.1601    9.5416 C.ar    1  UNL1        0.0435
     33 C          10.8182   38.0740    8.6571 C.ar    1  UNL1        0.1792
     34 O          12.1039   38.1779    8.8917 O.2     1  UNL1       -0.4530
@<TRIPOS>BOND
     1     1    21    1
     2     1     9   ar
     3    21    23   am
     4    24    23    1
     5    24    25    1
     6    25    28    1
     7    26    28    1
     8    27    28    1
     9    29    23    1
    10    29    30    1
    11    30    34   ar
    12    31    32   ar
    13    33    34   ar
    14     2     9   ar
    15     3     4   ar
    16     3     8   ar
    17     5     6   ar
    18     7     2   ar
    19     8    12    1
    20    10    14    1
    21    15    16   ar
    22    17    18   ar
    23    19    14   ar
    24    20    17    1
    25    12    10   am
    26    21    22    2
    27    30    31   ar
    28    32    33   ar
    29     2     3   ar
    30     4     5   ar
    31     6     7   ar
    32     8     1   ar
    33    10    11    2
    34    14    15   ar
    35    16    17   ar
    36    18    19   ar
    37    12    13    1
@<TRIPOS>MOLECULE
MolPort-007-776-367 ChemDiv-E957-1576 MCULE-1285197482 PubChem-20926064 ZINC000009265415
 34 37 0 0 0
SMALL
GASTEIGER

@<TRIPOS>ATOM
      1 C          13.8811   41.2653    8.3978 C.ar    1  UNL1        0.2118
      2 C          15.2053   42.5458    7.3269 C.ar    1  UNL1        0.1468
      3 C          13.9431   42.9486    6.9676 C.ar    1  UNL1        0.0512
      4 C          13.7334   44.0410    6.1271 C.ar    1  UNL1        0.0044
      5 C          14.8670   44.7024    5.6220 C.ar    1  UNL1        0.0002
      6 C          16.1646   44.2720    5.9731 C.ar    1  UNL1        0.0031
      7 C          16.3459   43.1807    6.8414 C.ar    1  UNL1        0.0375
      8 C          13.0746   42.1145    7.6426 C.ar    1  UNL1        0.0931
      9 O          15.1534   41.5431    8.1715 O.2     1  UNL1       -0.4476
     10 C          10.8550   42.6286    8.7958 C.2     1  UNL1        0.2496
     11 O          11.3864   43.3010    9.7204 O.2     1  UNL1       -0.2698
     12 N          11.6425   42.1715    7.6896 N.am    1  UNL1       -0.2778
     13 H          11.1562   41.8689    6.8889 H       1  UNL1        0.1553
     14 C           9.4067   42.3605    8.8235 C.ar    1  UNL1        0.0537
     15 C           8.7800   41.9639   10.0145 C.ar    1  UNL1        0.0042
     16 C           7.4057   41.7087   10.0392 C.ar    1  UNL1       -0.0041
     17 C           6.6482   41.8476    8.8730 C.ar    1  UNL1       -0.0218
     18 C           7.2645   42.2415    7.6824 C.ar    1  UNL1       -0.0041
     19 C           8.6387   42.4968    7.6577 C.ar    1  UNL1        0.0042
     20 C           5.1874   41.5762    8.8992 C.3     1  UNL1        0.0310
     21 C          13.4160   40.2000    9.3123 C.2     1  UNL1        0.2854
     22 O          13.9384   40.1041   10.4561 O.2     1  UNL1       -0.2665
     23 N          12.3710   39.2813    8.9337 N.am    1  UNL1       -0.2650
     24 C          12.0031   39.0548    7.5422 C.3     1  UNL1        0.1115
     25 C          10.4789   39.1062    7.3813 C.3     1  UNL1        0.0940
     26 C           8.6144   39.2844    5.8935 C.3     1  UNL1        0.0897
     27 C          10.7673   39.8814    5.1382 C.3     1  UNL1        0.0897
     28 N          10.0303   38.9614    5.9924 N.3     1  UNL1       -0.2688
     29 C          11.6836   38.4864    9.9438 C.3     1  UNL1        0.1586
     30 C          12.2530   37.1090    9.9956 C.ar    1  UNL1        0.1430
     31 C          11.6945   36.0455   10.6681 C.ar    1  UNL1        0.0379
     32 C          12.5745   34.9979   10.4576 C.ar    1  UNL1        0.0435
     33 C          13.6052   35.4956    9.6780 C.ar    1  UNL1        0.1792
     34 O          13.3770   36.7616    9.4251 O.2     1  UNL1       -0.4530
@<TRIPOS>BOND
     1     1    21    1
     2     1     9   ar
     3    21    23   am
     4    24    23    1
     5    24    25    1
     6    25    28    1
     7    26    28    1
     8    27    28    1
     9    29    23    1
    10    29    30    1
    11    30    34   ar
    12    31    32   ar
    13    33    34   ar
    14     2     9   ar
    15     3     4   ar
    16     3     8   ar
    17     5     6   ar
    18     7     2   ar
    19     8    12    1
    20    10    14    1
    21    15    16   ar
    22    17    18   ar
    23    19    14   ar
    24    20    17    1
    25    12    10   am
    26    21    22    2
    27    30    31   ar
    28    32    33   ar
    29     2     3   ar
    30     4     5   ar
    31     6     7   ar
    32     8     1   ar
    33    10    11    2
    34    14    15   ar
    35    16    17   ar
    36    18    19   ar
    37    12    13    1
@<TRIPOS>MOLECULE
MolPort-007-776-367 ChemDiv-E957-1576 MCULE-1285197482 PubChem-20926064 ZINC000009265415
 34 37 0 0 0
SMALL
GASTEIGER

@<TRIPOS>ATOM
      1 C          14.7163   41.2218    8.3794 C.ar    1  UNL1        0.2118
      2 C          15.7105   42.7838    7.3250 C.ar    1  UNL1        0.1468
      3 C          14.4123   42.8164    6.8801 C.ar    1  UNL1        0.0512
      4 C          13.9693   43.7855    5.9810 C.ar    1  UNL1        0.0044
      5 C          14.9117   44.7163    5.5086 C.ar    1  UNL1        0.0002
      6 C          16.2520   44.6666    5.9486 C.ar    1  UNL1        0.0031
      7 C          16.6656   43.6916    6.8738 C.ar    1  UNL1        0.0375
      8 C          13.7603   41.7967    7.5441 C.ar    1  UNL1        0.0931
      9 O          15.8777   41.8296    8.2100 O.2     1  UNL1       -0.4476
     10 C          11.8158   40.1865    7.1610 C.2     1  UNL1        0.2496
     11 O          12.5496   39.1616    7.1374 O.2     1  UNL1       -0.2698
     12 N          12.3664   41.4621    7.5109 N.am    1  UNL1       -0.2778
     13 H          11.7296   42.1737    7.7504 H       1  UNL1        0.1553
     14 C          10.3743   40.0625    6.8835 C.ar    1  UNL1        0.0537
     15 C           9.4295   40.4596    7.8417 C.ar    1  UNL1        0.0042
     16 C           8.0618   40.3403    7.5775 C.ar    1  UNL1       -0.0041
     17 C           7.6291   39.8225    6.3537 C.ar    1  UNL1       -0.0218
     18 C           8.5635   39.4240    5.3941 C.ar    1  UNL1       -0.0041
     19 C           9.9311   39.5434    5.6582 C.ar    1  UNL1        0.0042
     20 C           6.1754   39.6956    6.0729 C.3     1  UNL1        0.0310
     21 C          14.4989   40.0968    9.3146 C.2     1  UNL1        0.2854
     22 O          15.2004   39.0558    9.1933 O.2     1  UNL1       -0.2665
     23 N          13.5175   40.1684   10.3686 N.am    1  UNL1       -0.2650
     24 C          12.4167   41.1226   10.3409 C.3     1  UNL1        0.1115
     25 C          11.2312   40.5887   11.1541 C.3     1  UNL1        0.0940
     26 C          10.1865   42.6846   10.6670 C.3     1  UNL1        0.0897
     27 C           9.0397   41.0873   11.9692 C.3     1  UNL1        0.0897
     28 N          10.3517   41.6429   11.6702 N.3     1  UNL1       -0.2688
     29 C          13.5575   39.2275   11.4812 C.3     1  UNL1        0.1586
     30 C          13.2310   37.8513   11.0083 C.ar    1  UNL1        0.1430
     31 C          13.9502   36.7175   11.3125 C.ar    1  UNL1        0.0379
     32 C          13.2976   35.6986   10.6401 C.ar    1  UNL1        0.0435
     33 C          12.2331   36.2814    9.9728 C.ar    1  UNL1        0.1792
     34 O          12.2292   37.5695   10.2168 O.2     1  UNL1       -0.4530
@<TRIPOS>BOND
     1     1    21    1
     2     1     9   ar
     3    21    23   am
     4    24    23    1
     5    24    25    1
     6    25    28    1
     7    26    28    1
     8    27    28    1
     9    29    23    1
    10    29    30    1
    11    30    34   ar
    12    31    32   ar
    13    33    34   ar
    14     2     9   ar
    15     3     4   ar
    16     3     8   ar
    17     5     6   ar
    18     7     2   ar
    19     8    12    1
    20    10    14    1
    21    15    16   ar
    22    17    18   ar
    23    19    14   ar
    24    20    17    1
    25    12    10   am
    26    21    22    2
    27    30    31   ar
    28    32    33   ar
    29     2     3   ar
    30     4     5   ar
    31     6     7   ar
    32     8     1   ar
    33    10    11    2
    34    14    15   ar
    35    16    17   ar
    36    18    19   ar
    37    12    13    1
@<TRIPOS>MOLECULE
MolPort-007-776-367 ChemDiv-E957-1576 MCULE-1285197482 PubChem-20926064 ZINC000009265415
 34 37 0 0 0
SMALL
GASTEIGER

@<TRIPOS>ATOM
      1 C          10.8088   39.1497    7.9897 C.ar    1  UNL1        0.2118
      2 C           9.8019   38.9084    6.1275 C.ar    1  UNL1        0.1468
      3 C          10.8562   39.7466    5.8626 C.ar    1  UNL1        0.0512
      4 C          11.1280   40.1981    4.5718 C.ar    1  UNL1        0.0044
      5 C          10.2576   39.7953    3.5433 C.ar    1  UNL1        0.0002
      6 C           9.1597   38.9528    3.8213 C.ar    1  UNL1        0.0031
      7 C           8.9230   38.4942    5.1295 C.ar    1  UNL1        0.0375
      8 C          11.5080   39.9248    7.0664 C.ar    1  UNL1        0.0931
      9 O           9.7829   38.5667    7.3941 O.2     1  UNL1       -0.4476
     10 C          12.9788   42.0115    7.0126 C.2     1  UNL1        0.2496
     11 O          12.0222   42.7904    6.7524 O.2     1  UNL1       -0.2698
     12 N          12.7272   40.6353    7.3213 N.am    1  UNL1       -0.2778
     13 H          13.4579   40.1315    7.7472 H       1  UNL1        0.1553
     14 C          14.3565   42.5314    7.0556 C.ar    1  UNL1        0.0537
     15 C          14.7314   43.6185    6.2518 C.ar    1  UNL1        0.0042
     16 C          16.0395   44.1101    6.2928 C.ar    1  UNL1       -0.0041
     17 C          16.9823   43.5178    7.1373 C.ar    1  UNL1       -0.0218
     18 C          16.6176   42.4342    7.9407 C.ar    1  UNL1       -0.0041
     19 C          15.3095   41.9427    7.8999 C.ar    1  UNL1        0.0042
     20 C          18.3728   44.0402    7.1808 C.3     1  UNL1        0.0310
     21 C          11.1327   38.9920    9.4241 C.2     1  UNL1        0.2854
     22 O          11.1974   37.8312    9.9129 O.2     1  UNL1       -0.2665
     23 N          11.3913   40.1304   10.2706 N.am    1  UNL1       -0.2650
     24 C          10.9566   41.4753    9.9171 C.3     1  UNL1        0.1115
     25 C          10.0239   42.0330   10.9991 C.3     1  UNL1        0.0940
     26 C           8.1799   41.4145   12.3913 C.3     1  UNL1        0.0897
     27 C           7.7839   42.0844   10.1651 C.3     1  UNL1        0.0897
     28 N           8.7118   41.3786   11.0369 N.3     1  UNL1       -0.2688
     29 C          12.0478   39.9584   11.5607 C.3     1  UNL1        0.1586
     30 C          13.4710   39.5564   11.3686 C.ar    1  UNL1        0.1430
     31 C          14.2692   39.9451   10.3164 C.ar    1  UNL1        0.0379
     32 C          15.4801   39.3144   10.5445 C.ar    1  UNL1        0.0435
     33 C          15.3341   38.5854   11.7130 C.ar    1  UNL1        0.1792
     34 O          14.1184   38.7548   12.1735 O.2     1  UNL1       -0.4530
@<TRIPOS>BOND
     1     1    21    1
     2     1     9   ar
     3    21    23   am
     4    24    23    1
     5    24    25    1
     6    25    28    1
     7    26    28    1
     8    27    28    1
     9    29    23    1
    10    29    30    1
    11    30    34   ar
    12    31    32   ar
    13    33    34   ar
    14     2     9   ar
    15     3     4   ar
    16     3     8   ar
    17     5     6   ar
    18     7     2   ar
    19     8    12    1
    20    10    14    1
    21    15    16   ar
    22    17    18   ar
    23    19    14   ar
    24    20    17    1
    25    12    10   am
    26    21    22    2
    27    30    31   ar
    28    32    33   ar
    29     2     3   ar
    30     4     5   ar
    31     6     7   ar
    32     8     1   ar
    33    10    11    2
    34    14    15   ar
    35    16    17   ar
    36    18    19   ar
    37    12    13    1
@<TRIPOS>MOLECULE
MolPort-007-776-367 ChemDiv-E957-1576 MCULE-1285197482 PubChem-20926064 ZINC000009265415
 34 37 0 0 0
SMALL
GASTEIGER

@<TRIPOS>ATOM
      1 C          12.6509   42.5032    7.0265 C.ar    1  UNL1        0.2118
      2 C          14.4671   43.5705    6.7071 C.ar    1  UNL1        0.1468
      3 C          14.8084   42.5062    7.5041 C.ar    1  UNL1        0.0512
      4 C          16.1296   42.2633    7.8771 C.ar    1  UNL1        0.0044
      5 C          17.1087   43.1728    7.4393 C.ar    1  UNL1        0.0002
      6 C          16.7528   44.2805    6.6399 C.ar    1  UNL1        0.0031
      7 C          15.4148   44.4880    6.2598 C.ar    1  UNL1        0.0375
      8 C          13.6355   41.8149    7.7327 C.ar    1  UNL1        0.0931
      9 O          13.1834   43.5592    6.4362 O.2     1  UNL1       -0.4476
     10 C          12.8195   39.4012    7.9027 C.2     1  UNL1        0.2496
     11 O          12.6258   39.2831    6.6626 O.2     1  UNL1       -0.2698
     12 N          13.4558   40.5731    8.4267 N.am    1  UNL1       -0.2778
     13 H          13.8011   40.5210    9.3472 H       1  UNL1        0.1553
     14 C          12.4420   38.3048    8.8114 C.ar    1  UNL1        0.0537
     15 C          11.1073   38.1412    9.2116 C.ar    1  UNL1        0.0042
     16 C          10.7506   37.1010   10.0749 C.ar    1  UNL1       -0.0041
     17 C          11.7261   36.2174   10.5447 C.ar    1  UNL1       -0.0218
     18 C          13.0579   36.3736   10.1516 C.ar    1  UNL1       -0.0041
     19 C          13.4145   37.4136    9.2883 C.ar    1  UNL1        0.0042
     20 C          11.3470   35.1118   11.4624 C.3     1  UNL1        0.0310
     21 C          11.2197   42.1400    6.9403 C.2     1  UNL1        0.2854
     22 O          10.7009   41.9615    5.8048 O.2     1  UNL1       -0.2665
     23 N          10.4102   41.9702    8.1214 N.am    1  UNL1       -0.2650
     24 C          10.7911   42.5314    9.4110 C.3     1  UNL1        0.1115
     25 C           9.5472   42.7603   10.2782 C.3     1  UNL1        0.0940
     26 C           8.2877   41.6003   11.9483 C.3     1  UNL1        0.0897
     27 C          10.5107   40.9491   11.5056 C.3     1  UNL1        0.0897
     28 N           9.6086   42.0892   11.5809 N.3     1  UNL1       -0.2688
     29 C           9.1299   41.2772    8.0469 C.3     1  UNL1        0.1586
     30 C           9.1186   40.3316    6.8937 C.ar    1  UNL1        0.1430
     31 C           9.5057   39.0115    6.9476 C.ar    1  UNL1        0.0379
     32 C           9.3522   38.5490    5.6520 C.ar    1  UNL1        0.0435
     33 C           8.8879   39.6165    4.9017 C.ar    1  UNL1        0.1792
     34 O           8.7635   40.6641    5.6801 O.2     1  UNL1       -0.4530
@<TRIPOS>BOND
     1     1    21    1
     2     1     9   ar
     3    21    23   am
     4    24    23    1
     5    24    25    1
     6    25    28    1
     7    26    28    1
     8    27    28    1
     9    29    23    1
    10    29    30    1
    11    30    34   ar
    12    31    32   ar
    13    33    34   ar
    14     2     9   ar
    15     3     4   ar
    16     3     8   ar
    17     5     6   ar
    18     7     2   ar
    19     8    12    1
    20    10    14    1
    21    15    16   ar
    22    17    18   ar
    23    19    14   ar
    24    20    17    1
    25    12    10   am
    26    21    22    2
    27    30    31   ar
    28    32    33   ar
    29     2     3   ar
    30     4     5   ar
    31     6     7   ar
    32     8     1   ar
    33    10    11    2
    34    14    15   ar
    35    16    17   ar
    36    18    19   ar
    37    12    13    1
@<TRIPOS>MOLECULE
MolPort-007-776-367 ChemDiv-E957-1576 MCULE-1285197482 PubChem-20926064 ZINC000009265415
 34 37 0 0 0
SMALL
GASTEIGER

@<TRIPOS>ATOM
      1 C          11.2728   42.2167    9.1994 C.ar    1  UNL1        0.2118
      2 C           9.6745   42.7019   10.5222 C.ar    1  UNL1        0.1468
      3 C           9.8586   41.3484   10.6586 C.ar    1  UNL1        0.0512
      4 C           9.1256   40.5973   11.5763 C.ar    1  UNL1        0.0044
      5 C           8.1540   41.2682   12.3402 C.ar    1  UNL1        0.0002
      6 C           7.9490   42.6558   12.1816 C.ar    1  UNL1        0.0031
      7 C           8.7192   43.3925   11.2641 C.ar    1  UNL1        0.0375
      8 C          10.8819   41.0179    9.7929 C.ar    1  UNL1        0.0931
      9 O          10.5164   43.2028    9.6495 O.2     1  UNL1       -0.4476
     10 C          12.6437   39.2620   10.3701 C.2     1  UNL1        0.2496
     11 O          12.9668   39.8113   11.4578 O.2     1  UNL1       -0.2698
     12 N          11.5247   39.7480    9.6190 N.am    1  UNL1       -0.2778
     13 H          11.1642   39.1561    8.9197 H       1  UNL1        0.1553
     14 C          13.3844   38.0794    9.8977 C.ar    1  UNL1        0.0537
     15 C          14.6501   38.2219    9.3092 C.ar    1  UNL1        0.0042
     16 C          15.3514   37.0989    8.8603 C.ar    1  UNL1       -0.0041
     17 C          14.7920   35.8255    8.9960 C.ar    1  UNL1       -0.0218
     18 C          13.5316   35.6747    9.5802 C.ar    1  UNL1       -0.0041
     19 C          12.8304   36.7975   10.0293 C.ar    1  UNL1        0.0042
     20 C          15.5374   34.6318    8.5187 C.3     1  UNL1        0.0310
     21 C          12.3557   42.3901    8.2071 C.2     1  UNL1        0.2854
     22 O          13.4765   42.8204    8.5932 O.2     1  UNL1       -0.2665
     23 N          12.1653   42.0645    6.8153 N.am    1  UNL1       -0.2650
     24 C          10.8410   41.9552    6.2177 C.3     1  UNL1        0.1115
     25 C          10.5871   40.5170    5.7499 C.3     1  UNL1        0.0940
     26 C           9.6668   39.4395    3.8229 C.3     1  UNL1        0.0897
     27 C           8.2905   39.8555    5.6922 C.3     1  UNL1        0.0897
     28 N           9.3975   40.3767    4.9035 N.3     1  UNL1       -0.2688
     29 C          13.3124   41.8977    5.9315 C.3     1  UNL1        0.1586
     30 C          14.1555   43.1279    5.9384 C.ar    1  UNL1        0.1430
     31 C          15.4577   43.1935    6.3803 C.ar    1  UNL1        0.0379
     32 C          15.8137   44.5219    6.2227 C.ar    1  UNL1        0.0435
     33 C          14.7065   45.1706    5.7016 C.ar    1  UNL1        0.1792
     34 O          13.7356   44.3031    5.5483 O.2     1  UNL1       -0.4530
@<TRIPOS>BOND
     1     1    21    1
     2     1     9   ar
     3    21    23   am
     4    24    23    1
     5    24    25    1
     6    25    28    1
     7    26    28    1
     8    27    28    1
     9    29    23    1
    10    29    30    1
    11    30    34   ar
    12    31    32   ar
    13    33    34   ar
    14     2     9   ar
    15     3     4   ar
    16     3     8   ar
    17     5     6   ar
    18     7     2   ar
    19     8    12    1
    20    10    14    1
    21    15    16   ar
    22    17    18   ar
    23    19    14   ar
    24    20    17    1
    25    12    10   am
    26    21    22    2
    27    30    31   ar
    28    32    33   ar
    29     2     3   ar
    30     4     5   ar
    31     6     7   ar
    32     8     1   ar
    33    10    11    2
    34    14    15   ar
    35    16    17   ar
    36    18    19   ar
    37    12    13    1
