@<TRIPOS>MOLECULE
MolPort-047-015-614 MCULE-5605398052 PubChem-155985355
 21 23 0 0 0
SMALL
GASTEIGER

@<TRIPOS>ATOM
      1 C          11.9629   41.7641    6.8545 C.ar    1  UNL1        0.1361
      2 C          12.5069   41.0691    7.9344 C.ar    1  UNL1        0.0492
      3 C          11.6462   40.5815    8.9176 C.ar    1  UNL1        0.0641
      4 C           9.7912   41.4686    7.7495 C.ar    1  UNL1        0.1406
      5 C           8.3247   41.6850    7.6483 C.3     1  UNL1        0.0737
      6 N          10.3059   40.7898    8.8074 N.ar    1  UNL1       -0.2349
      7 N          10.6166   41.9497    6.7837 N.ar    1  UNL1       -0.2159
      8 C          12.2060   39.8350   10.0824 C.3     1  UNL1        0.0564
      9 C          13.7207   40.0269   10.1740 C.3     1  UNL1        0.0087
     10 C          14.3124   39.1952   11.3153 C.3     1  UNL1        0.0178
     11 C          13.6193   37.8351   11.4701 C.3     1  UNL1        0.0722
     12 C          12.3938   36.1251   10.4494 C.3     1  UNL1        0.0896
     13 C          11.8045   38.3491   10.0210 C.3     1  UNL1        0.0780
     14 N          12.9430   37.4507   10.2333 N.3     1  UNL1       -0.2712
     15 N          12.8357   42.2696    5.8386 N.pl3   1  UNL1       -0.2781
     16 H          12.6902   41.9502    4.9188 H       1  UNL1        0.1555
     17 C          13.9021   43.2008    6.0488 C.ar    1  UNL1        0.1646
     18 C          15.9438   44.3954    6.7252 C.ar    1  UNL1        0.0588
     19 C          15.0850   45.0985    5.8787 C.ar    1  UNL1        0.1079
     20 N          13.9570   44.4340    5.5071 N.ar    1  UNL1       -0.2224
     21 S          15.2398   42.8892    7.0022 S.2     1  UNL1       -0.0508
@<TRIPOS>BOND
     1     1    15    1
     2     1     7   ar
     3     2     3   ar
     4     8     3    1
     5     8     9    1
     6     9    10    1
     7    10    11    1
     8    11    14    1
     9    12    14    1
    10    13    14    1
    11    13     8    1
    12     4     6   ar
    13     5     4    1
    14    17    21   ar
    15    18    21   ar
    16    19    20   ar
    17    15    17    1
    18     1     2   ar
    19     3     6   ar
    20     4     7   ar
    21    17    20   ar
    22    18    19   ar
    23    15    16    1
@<TRIPOS>MOLECULE
MolPort-047-015-614 MCULE-5605398052 PubChem-155985355
 21 23 0 0 0
SMALL
GASTEIGER

@<TRIPOS>ATOM
      1 C          13.7845   41.1990    8.4101 C.ar    1  UNL1        0.1361
      2 C          12.3993   41.3612    8.4081 C.ar    1  UNL1        0.0492
      3 C          11.6563   40.7767    9.4336 C.ar    1  UNL1        0.0641
      4 C          13.6385   39.9174   10.3953 C.ar    1  UNL1        0.1406
      5 C          14.3091   39.1380   11.4679 C.3     1  UNL1        0.0737
      6 N          12.2885   40.0665   10.4072 N.ar    1  UNL1       -0.2349
      7 N          14.3760   40.4807    9.4032 N.ar    1  UNL1       -0.2159
      8 C          10.1727   40.9370    9.4518 C.3     1  UNL1        0.0564
      9 C           9.7458   42.1438    8.6145 C.3     1  UNL1        0.0087
     10 C           8.2330   42.3643    8.6987 C.3     1  UNL1        0.0178
     11 C           7.6730   42.0602   10.0945 C.3     1  UNL1        0.0722
     12 C           8.0886   41.9129   12.3908 C.3     1  UNL1        0.0896
     13 C           9.6505   41.0117   10.8991 C.3     1  UNL1        0.0780
     14 N           8.7257   42.1299   11.1053 N.3     1  UNL1       -0.2712
     15 N          14.5585   41.7940    7.3631 N.pl3   1  UNL1       -0.2781
     16 H          14.2283   41.6879    6.4417 H       1  UNL1        0.1555
     17 C          15.7725   42.5302    7.5443 C.ar    1  UNL1        0.1646
     18 C          17.6070   44.1695    7.5330 C.ar    1  UNL1        0.0588
     19 C          17.8389   43.0086    8.2725 C.ar    1  UNL1        0.1079
     20 N          16.8217   42.1046    8.2760 N.ar    1  UNL1       -0.2224
     21 S          16.0635   44.0321    6.8699 S.2     1  UNL1       -0.0508
@<TRIPOS>BOND
     1     1    15    1
     2     1     7   ar
     3     2     3   ar
     4     8     3    1
     5     8     9    1
     6     9    10    1
     7    10    11    1
     8    11    14    1
     9    12    14    1
    10    13    14    1
    11    13     8    1
    12     4     6   ar
    13     5     4    1
    14    17    21   ar
    15    18    21   ar
    16    19    20   ar
    17    15    17    1
    18     1     2   ar
    19     3     6   ar
    20     4     7   ar
    21    17    20   ar
    22    18    19   ar
    23    15    16    1
@<TRIPOS>MOLECULE
MolPort-047-015-614 MCULE-5605398052 PubChem-155985355
 21 23 0 0 0
SMALL
GASTEIGER

@<TRIPOS>ATOM
      1 C          12.4551   41.9999    6.4569 C.ar    1  UNL1        0.1361
      2 C          12.5985   41.0084    7.4271 C.ar    1  UNL1        0.0492
      3 C          13.8168   40.8999    8.0973 C.ar    1  UNL1        0.0641
      4 C          14.6778   42.7145    6.8490 C.ar    1  UNL1        0.1406
      5 C          15.8000   43.6367    6.5359 C.3     1  UNL1        0.0737
      6 N          14.8329   41.7538    7.7966 N.ar    1  UNL1       -0.2349
      7 N          13.4972   42.8328    6.1876 N.ar    1  UNL1       -0.2159
      8 C          13.9930   39.8462    9.1393 C.3     1  UNL1        0.0564
      9 C          13.2786   40.2370   10.4341 C.3     1  UNL1        0.0087
     10 C          13.5270   39.2008   11.5337 C.3     1  UNL1        0.0178
     11 C          14.9503   38.6294   11.4901 C.3     1  UNL1        0.0722
     12 C          17.1802   38.9511   10.8641 C.3     1  UNL1        0.0896
     13 C          15.4871   39.5435    9.3609 C.3     1  UNL1        0.0780
     14 N          15.8533   39.5324   10.7801 N.3     1  UNL1       -0.2712
     15 N          11.2096   42.1217    5.7619 N.pl3   1  UNL1       -0.2781
     16 H          10.9180   43.0287    5.5139 H       1  UNL1        0.1555
     17 C          10.3530   41.0345    5.3973 C.ar    1  UNL1        0.1646
     18 C           9.2799   39.0573    4.4014 C.ar    1  UNL1        0.0588
     19 C           8.5693   39.6757    5.4314 C.ar    1  UNL1        0.1079
     20 N           9.1665   40.7689    5.9793 N.ar    1  UNL1       -0.2224
     21 S          10.7047   39.9327    4.1899 S.2     1  UNL1       -0.0508
@<TRIPOS>BOND
     1     1    15    1
     2     1     7   ar
     3     2     3   ar
     4     8     3    1
     5     8     9    1
     6     9    10    1
     7    10    11    1
     8    11    14    1
     9    12    14    1
    10    13    14    1
    11    13     8    1
    12     4     6   ar
    13     5     4    1
    14    17    21   ar
    15    18    21   ar
    16    19    20   ar
    17    15    17    1
    18     1     2   ar
    19     3     6   ar
    20     4     7   ar
    21    17    20   ar
    22    18    19   ar
    23    15    16    1
@<TRIPOS>MOLECULE
MolPort-047-015-614 MCULE-5605398052 PubChem-155985355
 21 23 0 0 0
SMALL
GASTEIGER

@<TRIPOS>ATOM
      1 C          11.5651   41.7864    7.2582 C.ar    1  UNL1        0.1361
      2 C          10.2113   42.0949    7.1278 C.ar    1  UNL1        0.0492
      3 C           9.3578   41.8238    8.1970 C.ar    1  UNL1        0.0641
      4 C          11.1762   40.9746    9.4478 C.ar    1  UNL1        0.1406
      5 C          11.6987   40.3696   10.7003 C.3     1  UNL1        0.0737
      6 N           9.8550   41.2694    9.3360 N.ar    1  UNL1       -0.2349
      7 N          12.0202   41.2327    8.4151 N.ar    1  UNL1       -0.2159
      8 C           7.9052   42.1454    8.0798 C.3     1  UNL1        0.0564
      9 C           7.6657   43.6471    8.2452 C.3     1  UNL1        0.0087
     10 C           6.1700   43.9726    8.2114 C.3     1  UNL1        0.0178
     11 C           5.3203   42.8976    8.9019 C.3     1  UNL1        0.0722
     12 C           5.2255   41.1899   10.4964 C.3     1  UNL1        0.0896
     13 C           7.0795   41.3058    9.0729 C.3     1  UNL1        0.0780
     14 N           6.1267   42.1163    9.8369 N.3     1  UNL1       -0.2712
     15 N          12.4516   42.0598    6.1680 N.pl3   1  UNL1       -0.2781
     16 H          12.2820   41.5898    5.3197 H       1  UNL1        0.1555
     17 C          13.5640   42.9595    6.2085 C.ar    1  UNL1        0.1646
     18 C          15.7035   44.1113    6.5946 C.ar    1  UNL1        0.0588
     19 C          14.7834   44.7966    5.7994 C.ar    1  UNL1        0.1079
     20 N          13.6015   44.1559    5.5884 N.ar    1  UNL1       -0.2224
     21 S          14.9840   42.6523    7.0360 S.2     1  UNL1       -0.0508
@<TRIPOS>BOND
     1     1    15    1
     2     1     7   ar
     3     2     3   ar
     4     8     3    1
     5     8     9    1
     6     9    10    1
     7    10    11    1
     8    11    14    1
     9    12    14    1
    10    13    14    1
    11    13     8    1
    12     4     6   ar
    13     5     4    1
    14    17    21   ar
    15    18    21   ar
    16    19    20   ar
    17    15    17    1
    18     1     2   ar
    19     3     6   ar
    20     4     7   ar
    21    17    20   ar
    22    18    19   ar
    23    15    16    1
@<TRIPOS>MOLECULE
MolPort-047-015-614 MCULE-5605398052 PubChem-155985355
 21 23 0 0 0
SMALL
GASTEIGER

@<TRIPOS>ATOM
      1 C          12.9684   41.6425    8.0015 C.ar    1  UNL1        0.1361
      2 C          11.7612   42.0423    8.5741 C.ar    1  UNL1        0.0492
      3 C          11.4258   41.5538    9.8366 C.ar    1  UNL1        0.0641
      4 C          13.4450   40.3251    9.9099 C.ar    1  UNL1        0.1406
      5 C          14.3555   39.3978   10.6303 C.3     1  UNL1        0.0737
      6 N          12.2726   40.7053   10.4808 N.ar    1  UNL1       -0.2349
      7 N          13.7858   40.7924    8.6807 N.ar    1  UNL1       -0.2159
      8 C          10.1389   41.9680   10.4688 C.3     1  UNL1        0.0564
      9 C           9.8207   41.0898   11.6800 C.3     1  UNL1        0.0087
     10 C           8.4605   41.4540   12.2814 C.3     1  UNL1        0.0178
     11 C           7.4272   41.8277   11.2104 C.3     1  UNL1        0.0722
     12 C           6.7308   41.6099    8.9889 C.3     1  UNL1        0.0896
     13 C           8.9997   41.9741    9.4319 C.3     1  UNL1        0.0780
     14 N           7.8018   41.2776    9.9097 N.3     1  UNL1       -0.2712
     15 N          13.3242   42.1369    6.7061 N.pl3   1  UNL1       -0.2781
     16 H          12.9150   41.6960    5.9267 H       1  UNL1        0.1555
     17 C          14.2254   43.2188    6.4495 C.ar    1  UNL1        0.1646
     18 C          16.1276   44.7727    6.3073 C.ar    1  UNL1        0.0588
     19 C          14.9648   45.1798    5.6512 C.ar    1  UNL1        0.1079
     20 N          13.9152   44.3174    5.7324 N.ar    1  UNL1       -0.2224
     21 S          15.8009   43.2741    7.0063 S.2     1  UNL1       -0.0508
@<TRIPOS>BOND
     1     1    15    1
     2     1     7   ar
     3     2     3   ar
     4     8     3    1
     5     8     9    1
     6     9    10    1
     7    10    11    1
     8    11    14    1
     9    12    14    1
    10    13    14    1
    11    13     8    1
    12     4     6   ar
    13     5     4    1
    14    17    21   ar
    15    18    21   ar
    16    19    20   ar
    17    15    17    1
    18     1     2   ar
    19     3     6   ar
    20     4     7   ar
    21    17    20   ar
    22    18    19   ar
    23    15    16    1
@<TRIPOS>MOLECULE
MolPort-047-015-614 MCULE-5605398052 PubChem-155985355
 21 23 0 0 0
SMALL
GASTEIGER

@<TRIPOS>ATOM
      1 C          12.4292   41.6331    7.5793 C.ar    1  UNL1        0.1361
      2 C          11.0566   41.8151    7.7459 C.ar    1  UNL1        0.0492
      3 C          10.4590   41.3571    8.9199 C.ar    1  UNL1        0.0641
      4 C          12.5530   40.5778    9.6949 C.ar    1  UNL1        0.1406
      5 C          13.3624   39.9099   10.7467 C.3     1  UNL1        0.0737
      6 N          11.2170   40.7477    9.8718 N.ar    1  UNL1       -0.2349
      7 N          13.1496   41.0185    8.5568 N.ar    1  UNL1       -0.2159
      8 C           8.9916   41.5409    9.1198 C.3     1  UNL1        0.0564
      9 C           8.1984   40.7798    8.0562 C.3     1  UNL1        0.0087
     10 C           6.6957   41.0335    8.2042 C.3     1  UNL1        0.0178
     11 C           6.3832   42.4758    8.6242 C.3     1  UNL1        0.0722
     12 C           7.0745   44.7094    8.6521 C.3     1  UNL1        0.0896
     13 C           8.6308   43.0379    9.1627 C.3     1  UNL1        0.0780
     14 N           7.4944   43.3666    8.2974 N.3     1  UNL1       -0.2712
     15 N          13.0546   42.0987    6.3787 N.pl3   1  UNL1       -0.2781
     16 H          12.7917   41.6642    5.5352 H       1  UNL1        0.1555
     17 C          14.0301   43.1432    6.3024 C.ar    1  UNL1        0.1646
     18 C          16.0106   44.5920    6.4798 C.ar    1  UNL1        0.0588
     19 C          14.9461   45.1119    5.7417 C.ar    1  UNL1        0.1079
     20 N          13.8528   44.3073    5.6462 N.ar    1  UNL1       -0.2224
     21 S          15.5379   43.0673    7.0210 S.2     1  UNL1       -0.0508
@<TRIPOS>BOND
     1     1    15    1
     2     1     7   ar
     3     2     3   ar
     4     8     3    1
     5     8     9    1
     6     9    10    1
     7    10    11    1
     8    11    14    1
     9    12    14    1
    10    13    14    1
    11    13     8    1
    12     4     6   ar
    13     5     4    1
    14    17    21   ar
    15    18    21   ar
    16    19    20   ar
    17    15    17    1
    18     1     2   ar
    19     3     6   ar
    20     4     7   ar
    21    17    20   ar
    22    18    19   ar
    23    15    16    1
@<TRIPOS>MOLECULE
MolPort-047-015-614 MCULE-5605398052 PubChem-155985355
 21 23 0 0 0
SMALL
GASTEIGER

@<TRIPOS>ATOM
      1 C          12.8821   41.8193    6.7272 C.ar    1  UNL1        0.1361
      2 C          13.3489   41.0082    7.7611 C.ar    1  UNL1        0.0492
      3 C          14.6393   41.2197    8.2464 C.ar    1  UNL1        0.0641
      4 C          14.9427   42.9848    6.7020 C.ar    1  UNL1        0.1406
      5 C          15.8023   44.0528    6.1291 C.3     1  UNL1        0.0737
      6 N          15.4116   42.2029    7.7088 N.ar    1  UNL1       -0.2349
      7 N          13.6880   42.7910    6.2187 N.ar    1  UNL1       -0.2159
      8 C          15.1600   40.3637    9.3523 C.3     1  UNL1        0.0564
      9 C          16.6638   40.5720    9.5393 C.3     1  UNL1        0.0087
     10 C          17.2195   39.6343   10.6146 C.3     1  UNL1        0.0178
     11 C          16.5516   38.2531   10.5901 C.3     1  UNL1        0.0722
     12 C          15.4163   36.6397    9.3348 C.3     1  UNL1        0.0896
     13 C          14.7966   38.8857    9.1146 C.3     1  UNL1        0.0780
     14 N          15.9442   37.9905    9.2874 N.3     1  UNL1       -0.2712
     15 N          11.5595   41.6123    6.2203 N.pl3   1  UNL1       -0.2781
     16 H          11.4753   41.3288    5.2813 H       1  UNL1        0.1555
     17 C          10.3492   41.7832    6.9650 C.ar    1  UNL1        0.1646
     18 C           8.0280   41.9328    7.7667 C.ar    1  UNL1        0.0588
     19 C           9.0130   42.2339    8.7088 C.ar    1  UNL1        0.1079
     20 N          10.2953   42.1499    8.2611 N.ar    1  UNL1       -0.2224
     21 S           8.8205   41.5508    6.3289 S.2     1  UNL1       -0.0508
@<TRIPOS>BOND
     1     1    15    1
     2     1     7   ar
     3     2     3   ar
     4     8     3    1
     5     8     9    1
     6     9    10    1
     7    10    11    1
     8    11    14    1
     9    12    14    1
    10    13    14    1
    11    13     8    1
    12     4     6   ar
    13     5     4    1
    14    17    21   ar
    15    18    21   ar
    16    19    20   ar
    17    15    17    1
    18     1     2   ar
    19     3     6   ar
    20     4     7   ar
    21    17    20   ar
    22    18    19   ar
    23    15    16    1
@<TRIPOS>MOLECULE
MolPort-047-015-614 MCULE-5605398052 PubChem-155985355
 21 23 0 0 0
SMALL
GASTEIGER

@<TRIPOS>ATOM
      1 C          12.0376   41.6911    7.0614 C.ar    1  UNL1        0.1361
      2 C          10.8852   41.8515    7.8303 C.ar    1  UNL1        0.0492
      3 C           9.6701   41.3995    7.3161 C.ar    1  UNL1        0.0641
      4 C          10.7616   40.6674    5.3501 C.ar    1  UNL1        0.1406
      5 C          10.6964   40.0280    4.0105 C.3     1  UNL1        0.0737
      6 N           9.6304   40.8165    6.0871 N.ar    1  UNL1       -0.2349
      7 N          11.9527   41.1025    5.8374 N.ar    1  UNL1       -0.2159
      8 C           8.4239   41.5607    8.1212 C.3     1  UNL1        0.0564
      9 C           7.2846   40.7268    7.5326 C.3     1  UNL1        0.0087
     10 C           5.9814   40.9543    8.3034 C.3     1  UNL1        0.0178
     11 C           5.8176   42.4094    8.7617 C.3     1  UNL1        0.0722
     12 C           6.3573   44.6563    8.4041 C.3     1  UNL1        0.0896
     13 C           8.0525   43.0494    8.2581 C.3     1  UNL1        0.0780
     14 N           6.6417   43.3063    7.9546 N.3     1  UNL1       -0.2712
     15 N          13.2910   42.1508    7.5780 N.pl3   1  UNL1       -0.2781
     16 H          13.5841   41.7844    8.4435 H       1  UNL1        0.1555
     17 C          14.1538   43.0986    6.9409 C.ar    1  UNL1        0.1646
     18 C          16.0324   44.4671    6.1340 C.ar    1  UNL1        0.0588
     19 C          14.7768   44.8059    5.6270 C.ar    1  UNL1        0.1079
     20 N          13.7406   44.0465    6.0760 N.ar    1  UNL1       -0.2224
     21 S          15.8071   43.1651    7.1806 S.2     1  UNL1       -0.0508
@<TRIPOS>BOND
     1     1    15    1
     2     1     7   ar
     3     2     3   ar
     4     8     3    1
     5     8     9    1
     6     9    10    1
     7    10    11    1
     8    11    14    1
     9    12    14    1
    10    13    14    1
    11    13     8    1
    12     4     6   ar
    13     5     4    1
    14    17    21   ar
    15    18    21   ar
    16    19    20   ar
    17    15    17    1
    18     1     2   ar
    19     3     6   ar
    20     4     7   ar
    21    17    20   ar
    22    18    19   ar
    23    15    16    1
@<TRIPOS>MOLECULE
MolPort-047-015-614 MCULE-5605398052 PubChem-155985355
 21 23 0 0 0
SMALL
GASTEIGER

@<TRIPOS>ATOM
      1 C          12.1006   39.8905    8.0223 C.ar    1  UNL1        0.1361
      2 C          12.9660   40.9813    8.1014 C.ar    1  UNL1        0.0492
      3 C          13.0576   41.8427    7.0083 C.ar    1  UNL1        0.0641
      4 C          11.4709   40.5399    5.8346 C.ar    1  UNL1        0.1406
      5 C          10.6627   40.3003    4.6110 C.3     1  UNL1        0.0737
      6 N          12.3093   41.6067    5.8963 N.ar    1  UNL1       -0.2349
      7 N          11.3706   39.6918    6.8911 N.ar    1  UNL1       -0.2159
      8 C          13.9772   43.0164    7.0703 C.3     1  UNL1        0.0564
      9 C          14.0873   43.6937    5.7033 C.3     1  UNL1        0.0087
     10 C          15.0948   44.8461    5.7400 C.3     1  UNL1        0.0178
     11 C          16.3036   44.5398    6.6341 C.3     1  UNL1        0.0722
     12 C          17.6703   42.9079    7.6019 C.3     1  UNL1        0.0896
     13 C          15.3501   42.6036    7.6339 C.3     1  UNL1        0.0780
     14 N          16.4634   43.0993    6.8195 N.3     1  UNL1       -0.2712
     15 N          11.9975   38.9989    9.1376 N.pl3   1  UNL1       -0.2781
     16 H          11.4068   39.2684    9.8776 H       1  UNL1        0.1555
     17 C          12.6817   37.7483    9.2662 C.ar    1  UNL1        0.1646
     18 C          13.4239   35.4657    9.8064 C.ar    1  UNL1        0.0588
     19 C          14.2752   36.1972    8.9766 C.ar    1  UNL1        0.1079
     20 N          13.8608   37.4591    8.6805 N.ar    1  UNL1       -0.2224
     21 S          12.1117   36.4603   10.1672 S.2     1  UNL1       -0.0508
@<TRIPOS>BOND
     1     1    15    1
     2     1     7   ar
     3     2     3   ar
     4     8     3    1
     5     8     9    1
     6     9    10    1
     7    10    11    1
     8    11    14    1
     9    12    14    1
    10    13    14    1
    11    13     8    1
    12     4     6   ar
    13     5     4    1
    14    17    21   ar
    15    18    21   ar
    16    19    20   ar
    17    15    17    1
    18     1     2   ar
    19     3     6   ar
    20     4     7   ar
    21    17    20   ar
    22    18    19   ar
    23    15    16    1
@<TRIPOS>MOLECULE
MolPort-047-015-614 MCULE-5605398052 PubChem-155985355
 21 23 0 0 0
SMALL
GASTEIGER

@<TRIPOS>ATOM
      1 C          14.4076   40.5482    9.0297 C.ar    1  UNL1        0.1361
      2 C          13.1225   40.2091    8.6070 C.ar    1  UNL1        0.0492
      3 C          12.5836   40.8742    7.5059 C.ar    1  UNL1        0.0641
      4 C          14.5632   42.1505    7.2939 C.ar    1  UNL1        0.1406
      5 C          15.3425   43.1987    6.5856 C.3     1  UNL1        0.0737
      6 N          13.3128   41.8314    6.8702 N.ar    1  UNL1       -0.2349
      7 N          15.1018   41.5116    8.3649 N.ar    1  UNL1       -0.2159
      8 C          11.2102   40.5279    7.0358 C.3     1  UNL1        0.0564
      9 C          10.7240   39.2312    7.6854 C.3     1  UNL1        0.0087
     10 C           9.3510   38.8254    7.1427 C.3     1  UNL1        0.0178
     11 C           9.1968   39.1343    5.6477 C.3     1  UNL1        0.0722
     12 C          10.2543   39.4629    3.5882 C.3     1  UNL1        0.0896
     13 C          11.1595   40.4695    5.4974 C.3     1  UNL1        0.0780
     14 N          10.5022   39.2562    5.0029 N.3     1  UNL1       -0.2712
     15 N          14.9720   39.8729   10.1587 N.pl3   1  UNL1       -0.2781
     16 H          14.4088   39.7879   10.9617 H       1  UNL1        0.1555
     17 C          16.2871   39.3109   10.2173 C.ar    1  UNL1        0.1646
     18 C          18.2805   37.8994   10.5123 C.ar    1  UNL1        0.0588
     19 C          18.5166   39.1814   10.0132 C.ar    1  UNL1        0.1079
     20 N          17.4113   39.9587    9.8516 N.ar    1  UNL1       -0.2224
     21 S          16.6176   37.7614   10.7511 S.2     1  UNL1       -0.0508
@<TRIPOS>BOND
     1     1    15    1
     2     1     7   ar
     3     2     3   ar
     4     8     3    1
     5     8     9    1
     6     9    10    1
     7    10    11    1
     8    11    14    1
     9    12    14    1
    10    13    14    1
    11    13     8    1
    12     4     6   ar
    13     5     4    1
    14    17    21   ar
    15    18    21   ar
    16    19    20   ar
    17    15    17    1
    18     1     2   ar
    19     3     6   ar
    20     4     7   ar
    21    17    20   ar
    22    18    19   ar
    23    15    16    1
