@<TRIPOS>MOLECULE
MolPort-016-718-555 MCULE-1416712221 PubChem-46975451
 29 32 0 0 0
SMALL
GASTEIGER

@<TRIPOS>ATOM
      1 C          10.7172   41.4668    7.3198 C.2     1  UNL1        0.2275
      2 O          10.8914   40.5949    8.2114 O.2     1  UNL1       -0.2747
      3 N           9.4471   42.1034    7.1387 N.am    1  UNL1       -0.2641
      4 H           9.3889   42.7828    6.4286 H       1  UNL1        0.1567
      5 C           6.6432   41.6635   11.0765 C.ar    1  UNL1        0.1566
      6 C           6.9861   41.6553    9.7208 C.ar    1  UNL1        0.1230
      7 C           6.0380   41.3413    8.7582 C.ar    1  UNL1        0.0527
      8 C           4.7225   41.0259    9.0845 C.ar    1  UNL1        0.0083
      9 C           4.3632   41.0318   10.4404 C.ar    1  UNL1        0.0037
     10 C           5.3138   41.3483   11.4293 C.ar    1  UNL1        0.0385
     11 C           8.2528   41.8496    7.8884 C.ar    1  UNL1        0.1656
     12 S           6.7452   41.4142    7.2393 S.2     1  UNL1       -0.0513
     13 N           8.2239   41.9398    9.2397 N.ar    1  UNL1       -0.2209
     14 O           7.6084   41.9856   12.0388 O.3     1  UNL1       -0.4739
     15 C           9.9033   41.2512   12.1978 C.3     1  UNL1        0.0512
     16 C           8.4687   41.0218   12.6369 C.3     1  UNL1        0.2056
     17 C          11.8612   41.8685    6.4593 C.3     1  UNL1        0.0863
     18 C          12.9514   42.4911    7.3125 C.3     1  UNL1        0.0231
     19 C          14.2338   42.6393    6.5061 C.3     1  UNL1        0.1007
     20 C          15.4145   42.6115    7.4149 C.ar    1  UNL1       -0.0004
     21 C          15.8659   41.5558    8.2092 C.ar    1  UNL1       -0.0026
     22 C          17.0215   41.7513    8.9826 C.ar    1  UNL1       -0.0002
     23 C          17.7033   42.9828    8.9471 C.ar    1  UNL1        0.0013
     24 C          17.2376   44.0302    8.1363 C.ar    1  UNL1        0.0144
     25 C          16.0881   43.8147    7.3776 C.ar    1  UNL1        0.0467
     26 C          14.3709   44.0406    5.9767 C.2     1  UNL1        0.2298
     27 O          13.5890   44.5478    5.1302 O.2     1  UNL1       -0.2744
     28 N          15.4899   44.7535    6.5018 N.am    1  UNL1       -0.2839
     29 H          15.7765   45.6742    6.3035 H       1  UNL1        0.1549
@<TRIPOS>BOND
     1    15    16    1
     2    16    14    1
     3     5    14    1
     4     6     7   ar
     5     6    13   ar
     6     7    12   ar
     7     8     9   ar
     8    10     5   ar
     9    11    12   ar
    10    11     3    1
    11    17     1    1
    12    17    18    1
    13    19    18    1
    14    19    20    1
    15    19    26    1
    16    21    22   ar
    17    23    24   ar
    18    25    28    1
    19    25    20   ar
    20     3     1   am
    21    28    26   am
    22     5     6   ar
    23     7     8   ar
    24     9    10   ar
    25    11    13   ar
    26     1     2    2
    27    20    21   ar
    28    22    23   ar
    29    24    25   ar
    30    26    27    2
    31     3     4    1
    32    28    29    1
@<TRIPOS>MOLECULE
MolPort-016-718-555 MCULE-1416712221 PubChem-46975451
 29 32 0 0 0
SMALL
GASTEIGER

@<TRIPOS>ATOM
      1 C          10.6631   41.9695    8.2444 C.2     1  UNL1        0.2275
      2 O          10.9766   42.5875    9.2958 O.2     1  UNL1       -0.2747
      3 N          11.6303   41.6979    7.2237 N.am    1  UNL1       -0.2641
      4 H          11.3145   41.2009    6.4346 H       1  UNL1        0.1567
      5 C          16.3034   41.5386    8.5271 C.ar    1  UNL1        0.1566
      6 C          15.1580   41.9793    7.8567 C.ar    1  UNL1        0.1230
      7 C          15.2319   43.0330    6.9576 C.ar    1  UNL1        0.0527
      8 C          16.4258   43.6922    6.6804 C.ar    1  UNL1        0.0083
      9 C          17.5834   43.2600    7.3440 C.ar    1  UNL1        0.0037
     10 C          17.5249   42.1921    8.2594 C.ar    1  UNL1        0.0385
     11 C          13.0118   42.0775    7.2369 C.ar    1  UNL1        0.1656
     12 S          13.7082   43.3272    6.3219 S.2     1  UNL1       -0.0513
     13 N          13.9205   41.4428    8.0157 N.ar    1  UNL1       -0.2209
     14 O          16.2166   40.4714    9.4299 O.3     1  UNL1       -0.4739
     15 C          16.8847   38.9433   11.1762 C.3     1  UNL1        0.0512
     16 C          17.3381   39.9503   10.1352 C.3     1  UNL1        0.2056
     17 C           9.2689   41.4821    8.0734 C.3     1  UNL1        0.0863
     18 C           8.5684   41.4479    9.4195 C.3     1  UNL1        0.0231
     19 C           7.3958   42.4183    9.4301 C.3     1  UNL1        0.1007
     20 C           6.1806   41.7451    9.9695 C.ar    1  UNL1       -0.0004
     21 C           5.9696   41.2513   11.2582 C.ar    1  UNL1       -0.0026
     22 C           4.7286   40.6629   11.5507 C.ar    1  UNL1       -0.0002
     23 C           3.7273   40.5825   10.5640 C.ar    1  UNL1        0.0013
     24 C           3.9563   41.0915    9.2756 C.ar    1  UNL1        0.0144
     25 C           5.1956   41.6703    9.0068 C.ar    1  UNL1        0.0467
     26 C           6.9179   42.6913    8.0301 C.2     1  UNL1        0.2298
     27 O           7.6080   43.2823    7.1586 O.2     1  UNL1       -0.2744
     28 N           5.5892   42.2400    7.7712 N.am    1  UNL1       -0.2839
     29 H           5.0718   42.3081    6.9364 H       1  UNL1        0.1549
@<TRIPOS>BOND
     1    15    16    1
     2    16    14    1
     3     5    14    1
     4     6     7   ar
     5     6    13   ar
     6     7    12   ar
     7     8     9   ar
     8    10     5   ar
     9    11    12   ar
    10    11     3    1
    11    17     1    1
    12    17    18    1
    13    19    18    1
    14    19    20    1
    15    19    26    1
    16    21    22   ar
    17    23    24   ar
    18    25    28    1
    19    25    20   ar
    20     3     1   am
    21    28    26   am
    22     5     6   ar
    23     7     8   ar
    24     9    10   ar
    25    11    13   ar
    26     1     2    2
    27    20    21   ar
    28    22    23   ar
    29    24    25   ar
    30    26    27    2
    31     3     4    1
    32    28    29    1
@<TRIPOS>MOLECULE
MolPort-016-718-555 MCULE-1416712221 PubChem-46975451
 29 32 0 0 0
SMALL
GASTEIGER

@<TRIPOS>ATOM
      1 C          11.4332   40.9682    6.3814 C.2     1  UNL1        0.2275
      2 O          12.0110   40.1175    7.1081 O.2     1  UNL1       -0.2747
      3 N          12.0849   42.1838    5.9958 N.am    1  UNL1       -0.2641
      4 H          11.5749   42.7964    5.4179 H       1  UNL1        0.1567
      5 C          16.3622   41.9767    8.2814 C.ar    1  UNL1        0.1566
      6 C          15.3668   42.4740    7.4344 C.ar    1  UNL1        0.1230
      7 C          15.5732   43.6446    6.7195 C.ar    1  UNL1        0.0527
      8 C          16.7579   44.3697    6.8049 C.ar    1  UNL1        0.0083
      9 C          17.7662   43.8821    7.6492 C.ar    1  UNL1        0.0037
     10 C          17.5722   42.6956    8.3815 C.ar    1  UNL1        0.0385
     11 C          13.4055   42.5970    6.3675 C.ar    1  UNL1        0.1656
     12 S          14.2102   43.9814    5.8022 S.2     1  UNL1       -0.0513
     13 N          14.1581   41.8857    7.2409 N.ar    1  UNL1       -0.2209
     14 O          16.1433   40.7918    8.9953 O.3     1  UNL1       -0.4739
     15 C          15.0108   39.3599   10.5760 C.3     1  UNL1        0.0512
     16 C          14.8631   40.3909    9.4721 C.3     1  UNL1        0.2056
     17 C          10.0592   40.6908    5.8856 C.3     1  UNL1        0.0863
     18 C           9.1445   40.3785    7.0559 C.3     1  UNL1        0.0231
     19 C           8.2849   41.5886    7.3925 C.3     1  UNL1        0.1007
     20 C           7.9130   41.5653    8.8355 C.ar    1  UNL1       -0.0004
     21 C           8.7545   41.6745    9.9441 C.ar    1  UNL1       -0.0026
     22 C           8.1774   41.6417   11.2238 C.ar    1  UNL1       -0.0002
     23 C           6.7839   41.5070   11.3743 C.ar    1  UNL1        0.0013
     24 C           5.9535   41.4059   10.2466 C.ar    1  UNL1        0.0144
     25 C           6.5476   41.4396    8.9860 C.ar    1  UNL1        0.0467
     26 C           6.9139   41.4525    6.7887 C.2     1  UNL1        0.2298
     27 O           6.6941   41.4389    5.5491 O.2     1  UNL1       -0.2744
     28 N           5.8623   41.3616    7.7489 N.am    1  UNL1       -0.2839
     29 H           4.8953   41.2675    7.5901 H       1  UNL1        0.1549
@<TRIPOS>BOND
     1    15    16    1
     2    16    14    1
     3     5    14    1
     4     6     7   ar
     5     6    13   ar
     6     7    12   ar
     7     8     9   ar
     8    10     5   ar
     9    11    12   ar
    10    11     3    1
    11    17     1    1
    12    17    18    1
    13    19    18    1
    14    19    20    1
    15    19    26    1
    16    21    22   ar
    17    23    24   ar
    18    25    28    1
    19    25    20   ar
    20     3     1   am
    21    28    26   am
    22     5     6   ar
    23     7     8   ar
    24     9    10   ar
    25    11    13   ar
    26     1     2    2
    27    20    21   ar
    28    22    23   ar
    29    24    25   ar
    30    26    27    2
    31     3     4    1
    32    28    29    1
@<TRIPOS>MOLECULE
MolPort-016-718-555 MCULE-1416712221 PubChem-46975451
 29 32 0 0 0
SMALL
GASTEIGER

@<TRIPOS>ATOM
      1 C          11.1932   41.9626    6.5525 C.2     1  UNL1        0.2275
      2 O          11.1936   42.3458    7.7520 O.2     1  UNL1       -0.2747
      3 N          12.3795   42.0196    5.7521 N.am    1  UNL1       -0.2641
      4 H          12.3058   41.6929    4.8263 H       1  UNL1        0.1567
      5 C          16.5303   42.1174    8.2666 C.ar    1  UNL1        0.1566
      6 C          15.5661   42.5229    7.3386 C.ar    1  UNL1        0.1230
      7 C          15.7706   43.6537    6.5617 C.ar    1  UNL1        0.0527
      8 C          16.9232   44.4271    6.6622 C.ar    1  UNL1        0.0083
      9 C          17.9002   44.0315    7.5875 C.ar    1  UNL1        0.0037
     10 C          17.7075   42.8864    8.3834 C.ar    1  UNL1        0.0385
     11 C          13.6628   42.5048    6.1650 C.ar    1  UNL1        0.1656
     12 S          14.4489   43.8808    5.5547 S.2     1  UNL1       -0.0513
     13 N          14.3907   41.8783    7.1204 N.ar    1  UNL1       -0.2209
     14 O          16.3139   40.9719    9.0427 O.3     1  UNL1       -0.4739
     15 C          16.8986   38.9959   10.3017 C.3     1  UNL1        0.0512
     16 C          17.3102   40.3945    9.8800 C.3     1  UNL1        0.2056
     17 C           9.9451   41.4084    5.9645 C.3     1  UNL1        0.0863
     18 C           8.7506   41.8390    6.7963 C.3     1  UNL1        0.0231
     19 C           8.3896   40.7560    7.8029 C.3     1  UNL1        0.1007
     20 C           8.9027   41.1224    9.1533 C.ar    1  UNL1       -0.0004
     21 C           8.5214   42.1982    9.9572 C.ar    1  UNL1       -0.0026
     22 C           9.1344   42.3414   11.2124 C.ar    1  UNL1       -0.0002
     23 C          10.1041   41.4152   11.6422 C.ar    1  UNL1        0.0013
     24 C          10.4688   40.3355   10.8220 C.ar    1  UNL1        0.0144
     25 C           9.8485   40.2133    9.5796 C.ar    1  UNL1        0.0467
     26 C           9.2047   39.5144    7.5647 C.2     1  UNL1        0.2298
     27 O           9.1137   38.8066    6.5275 O.2     1  UNL1       -0.2744
     28 N          10.0875   39.1843    8.6361 N.am    1  UNL1       -0.2839
     29 H          10.7112   38.4255    8.7032 H       1  UNL1        0.1549
@<TRIPOS>BOND
     1    15    16    1
     2    16    14    1
     3     5    14    1
     4     6     7   ar
     5     6    13   ar
     6     7    12   ar
     7     8     9   ar
     8    10     5   ar
     9    11    12   ar
    10    11     3    1
    11    17     1    1
    12    17    18    1
    13    19    18    1
    14    19    20    1
    15    19    26    1
    16    21    22   ar
    17    23    24   ar
    18    25    28    1
    19    25    20   ar
    20     3     1   am
    21    28    26   am
    22     5     6   ar
    23     7     8   ar
    24     9    10   ar
    25    11    13   ar
    26     1     2    2
    27    20    21   ar
    28    22    23   ar
    29    24    25   ar
    30    26    27    2
    31     3     4    1
    32    28    29    1
@<TRIPOS>MOLECULE
MolPort-016-718-555 MCULE-1416712221 PubChem-46975451
 29 32 0 0 0
SMALL
GASTEIGER

@<TRIPOS>ATOM
      1 C          11.2567   41.7210    6.2054 C.2     1  UNL1        0.2275
      2 O          11.4684   40.9555    7.1826 O.2     1  UNL1       -0.2747
      3 N          12.2546   42.6423    5.7511 N.am    1  UNL1       -0.2641
      4 H          12.0215   43.2014    4.9750 H       1  UNL1        0.1567
      5 C          16.1479   41.6245    8.4656 C.ar    1  UNL1        0.1566
      6 C          15.3380   42.3349    7.5740 C.ar    1  UNL1        0.1230
      7 C          15.7780   43.5303    7.0250 C.ar    1  UNL1        0.0527
      8 C          17.0236   44.0733    7.3255 C.ar    1  UNL1        0.0083
      9 C          17.8478   43.3709    8.2170 C.ar    1  UNL1        0.0037
     10 C          17.4157   42.1564    8.7827 C.ar    1  UNL1        0.0385
     11 C          13.5587   42.8310    6.3139 C.ar    1  UNL1        0.1656
     12 S          14.5952   44.1400    6.0044 S.2     1  UNL1       -0.0513
     13 N          14.0996   41.9406    7.1798 N.ar    1  UNL1       -0.2209
     14 O          15.6939   40.4168    9.0106 O.3     1  UNL1       -0.4739
     15 C          15.2777   39.0711   10.9719 C.3     1  UNL1        0.0512
     16 C          16.3165   39.7758   10.1189 C.3     1  UNL1        0.2056
     17 C           9.9571   41.6440    5.4871 C.3     1  UNL1        0.0863
     18 C           9.5243   40.1945    5.3631 C.3     1  UNL1        0.0231
     19 C           8.3567   39.9097    6.2971 C.3     1  UNL1        0.1007
     20 C           7.7742   41.1893    6.7913 C.ar    1  UNL1       -0.0004
     21 C           7.1288   42.1838    6.0541 C.ar    1  UNL1       -0.0026
     22 C           6.6415   43.3092    6.7381 C.ar    1  UNL1       -0.0002
     23 C           6.8004   43.4200    8.1328 C.ar    1  UNL1        0.0013
     24 C           7.4462   42.4056    8.8576 C.ar    1  UNL1        0.0144
     25 C           7.9230   41.2979    8.1583 C.ar    1  UNL1        0.0467
     26 C           8.8451   39.3473    7.6040 C.2     1  UNL1        0.2298
     27 O           9.4159   38.2306    7.7148 O.2     1  UNL1       -0.2744
     28 N           8.5851   40.1840    8.7302 N.am    1  UNL1       -0.2839
     29 H           8.8110   40.0255    9.6752 H       1  UNL1        0.1549
@<TRIPOS>BOND
     1    15    16    1
     2    16    14    1
     3     5    14    1
     4     6     7   ar
     5     6    13   ar
     6     7    12   ar
     7     8     9   ar
     8    10     5   ar
     9    11    12   ar
    10    11     3    1
    11    17     1    1
    12    17    18    1
    13    19    18    1
    14    19    20    1
    15    19    26    1
    16    21    22   ar
    17    23    24   ar
    18    25    28    1
    19    25    20   ar
    20     3     1   am
    21    28    26   am
    22     5     6   ar
    23     7     8   ar
    24     9    10   ar
    25    11    13   ar
    26     1     2    2
    27    20    21   ar
    28    22    23   ar
    29    24    25   ar
    30    26    27    2
    31     3     4    1
    32    28    29    1
@<TRIPOS>MOLECULE
MolPort-016-718-555 MCULE-1416712221 PubChem-46975451
 29 32 0 0 0
SMALL
GASTEIGER

@<TRIPOS>ATOM
      1 C          11.3375   40.8160    8.2282 C.2     1  UNL1        0.2275
      2 O          10.7204   39.8734    7.6658 O.2     1  UNL1       -0.2747
      3 N          10.6850   41.6771    9.1683 N.am    1  UNL1       -0.2641
      4 H          11.2339   42.3857    9.5756 H       1  UNL1        0.1567
      5 C           5.8880   41.1362    8.6606 C.ar    1  UNL1        0.1566
      6 C           7.1071   41.3554    9.3095 C.ar    1  UNL1        0.1230
      7 C           7.1445   41.5767   10.6784 C.ar    1  UNL1        0.0527
      8 C           5.9943   41.5903   11.4616 C.ar    1  UNL1        0.0083
      9 C           4.7642   41.3701   10.8248 C.ar    1  UNL1        0.0037
     10 C           4.7095   41.1441    9.4364 C.ar    1  UNL1        0.0385
     11 C           9.3128   41.6097    9.5749 C.ar    1  UNL1        0.1656
     12 S           8.7346   41.8060   11.1595 S.2     1  UNL1       -0.0513
     13 N           8.3154   41.3729    8.6894 N.ar    1  UNL1       -0.2209
     14 O           5.8636   40.9104    7.2786 O.3     1  UNL1       -0.4739
     15 C           7.2400   39.3109    6.1046 C.3     1  UNL1        0.0512
     16 C           7.0392   40.7654    6.4888 C.3     1  UNL1        0.2056
     17 C          12.7812   41.0190    7.9363 C.3     1  UNL1        0.0863
     18 C          13.0358   42.4758    7.5946 C.3     1  UNL1        0.0231
     19 C          14.2123   42.5961    6.6364 C.3     1  UNL1        0.1007
     20 C          15.4872   42.6897    7.4023 C.ar    1  UNL1       -0.0004
     21 C          16.0709   41.7248    8.2253 C.ar    1  UNL1       -0.0026
     22 C          17.2958   42.0279    8.8413 C.ar    1  UNL1       -0.0002
     23 C          17.9141   43.2742    8.6240 C.ar    1  UNL1        0.0013
     24 C          17.3147   44.2288    7.7869 C.ar    1  UNL1        0.0144
     25 C          16.0984   43.9074    7.1865 C.ar    1  UNL1        0.0467
     26 C          14.2271   43.9488    5.9786 C.2     1  UNL1        0.2298
     27 O          13.3339   44.3516    5.1880 O.2     1  UNL1       -0.2744
     28 N          15.3650   44.7436    6.3095 N.am    1  UNL1       -0.2839
     29 H          15.5866   45.6524    6.0027 H       1  UNL1        0.1549
@<TRIPOS>BOND
     1    15    16    1
     2    16    14    1
     3     5    14    1
     4     6     7   ar
     5     6    13   ar
     6     7    12   ar
     7     8     9   ar
     8    10     5   ar
     9    11    12   ar
    10    11     3    1
    11    17     1    1
    12    17    18    1
    13    19    18    1
    14    19    20    1
    15    19    26    1
    16    21    22   ar
    17    23    24   ar
    18    25    28    1
    19    25    20   ar
    20     3     1   am
    21    28    26   am
    22     5     6   ar
    23     7     8   ar
    24     9    10   ar
    25    11    13   ar
    26     1     2    2
    27    20    21   ar
    28    22    23   ar
    29    24    25   ar
    30    26    27    2
    31     3     4    1
    32    28    29    1
@<TRIPOS>MOLECULE
MolPort-016-718-555 MCULE-1416712221 PubChem-46975451
 29 32 0 0 0
SMALL
GASTEIGER

@<TRIPOS>ATOM
      1 C          11.2660   40.6033    8.2439 C.2     1  UNL1        0.2275
      2 O          11.2751   41.3656    9.2462 O.2     1  UNL1       -0.2747
      3 N          12.3326   40.6167    7.2882 N.am    1  UNL1       -0.2641
      4 H          12.2620   39.9855    6.5361 H       1  UNL1        0.1567
      5 C          16.8455   41.9779    8.4471 C.ar    1  UNL1        0.1566
      6 C          15.5751   42.0572    7.8681 C.ar    1  UNL1        0.1230
      7 C          15.2146   43.1641    7.1139 C.ar    1  UNL1        0.0527
      8 C          16.0812   44.2312    6.8972 C.ar    1  UNL1        0.0083
      9 C          17.3597   44.1650    7.4703 C.ar    1  UNL1        0.0037
     10 C          17.7406   43.0485    8.2385 C.ar    1  UNL1        0.0385
     11 C          13.4922   41.4577    7.3182 C.ar    1  UNL1        0.1656
     12 S          13.6440   42.9692    6.5591 S.2     1  UNL1       -0.0513
     13 N          14.6166   41.1020    7.9847 N.ar    1  UNL1       -0.2209
     14 O          17.1989   40.8535    9.2036 O.3     1  UNL1       -0.4739
     15 C          16.9343   38.8889   10.5824 C.3     1  UNL1        0.0512
     16 C          16.2721   40.1248   10.0016 C.3     1  UNL1        0.2056
     17 C          10.1423   39.6460    8.0662 C.3     1  UNL1        0.0863
     18 C           8.8196   40.3856    8.1514 C.3     1  UNL1        0.0231
     19 C           8.7566   41.4795    7.0950 C.3     1  UNL1        0.1007
     20 C           8.0039   42.6537    7.6200 C.ar    1  UNL1       -0.0004
     21 C           8.3501   43.4961    8.6781 C.ar    1  UNL1       -0.0026
     22 C           7.4887   44.5600    8.9912 C.ar    1  UNL1       -0.0002
     23 C           6.3110   44.7664    8.2477 C.ar    1  UNL1        0.0013
     24 C           5.9839   43.9124    7.1823 C.ar    1  UNL1        0.0144
     25 C           6.8525   42.8622    6.8895 C.ar    1  UNL1        0.0467
     26 C           7.8347   41.0846    5.9739 C.2     1  UNL1        0.2298
     27 O           8.0546   40.1207    5.1944 O.2     1  UNL1       -0.2744
     28 N           6.6831   41.9177    5.8476 N.am    1  UNL1       -0.2839
     29 H           5.9491   41.8521    5.1948 H       1  UNL1        0.1549
@<TRIPOS>BOND
     1    15    16    1
     2    16    14    1
     3     5    14    1
     4     6     7   ar
     5     6    13   ar
     6     7    12   ar
     7     8     9   ar
     8    10     5   ar
     9    11    12   ar
    10    11     3    1
    11    17     1    1
    12    17    18    1
    13    19    18    1
    14    19    20    1
    15    19    26    1
    16    21    22   ar
    17    23    24   ar
    18    25    28    1
    19    25    20   ar
    20     3     1   am
    21    28    26   am
    22     5     6   ar
    23     7     8   ar
    24     9    10   ar
    25    11    13   ar
    26     1     2    2
    27    20    21   ar
    28    22    23   ar
    29    24    25   ar
    30    26    27    2
    31     3     4    1
    32    28    29    1
@<TRIPOS>MOLECULE
MolPort-016-718-555 MCULE-1416712221 PubChem-46975451
 29 32 0 0 0
SMALL
GASTEIGER

@<TRIPOS>ATOM
      1 C          11.6762   40.9841    8.9541 C.2     1  UNL1        0.2275
      2 O          12.0367   41.5820   10.0020 O.2     1  UNL1       -0.2747
      3 N          12.4559   41.0477    7.7545 N.am    1  UNL1       -0.2641
      4 H          12.1168   40.5463    6.9781 H       1  UNL1        0.1567
      5 C          17.1597   42.0982    8.3321 C.ar    1  UNL1        0.1566
      6 C          15.8506   42.2270    7.8576 C.ar    1  UNL1        0.1230
      7 C          15.5146   43.2596    6.9944 C.ar    1  UNL1        0.0527
      8 C          16.4442   44.2011    6.5631 C.ar    1  UNL1        0.0083
      9 C          17.7619   44.0836    7.0293 C.ar    1  UNL1        0.0037
     10 C          18.1186   43.0414    7.9058 C.ar    1  UNL1        0.0385
     11 C          13.6806   41.7687    7.5723 C.ar    1  UNL1        0.1656
     12 S          13.8868   43.1500    6.6062 S.2     1  UNL1       -0.0513
     13 N          14.8298   41.3923    8.1829 N.ar    1  UNL1       -0.2209
     14 O          17.4873   41.0494    9.2005 O.3     1  UNL1       -0.4739
     15 C          17.1795   39.2499   10.7810 C.3     1  UNL1        0.0512
     16 C          16.5172   40.1919    9.7924 C.3     1  UNL1        0.2056
     17 C          10.4335   40.1677    8.9712 C.3     1  UNL1        0.0863
     18 C           9.4019   40.7839    8.0439 C.3     1  UNL1        0.0231
     19 C           8.1170   41.0793    8.8044 C.3     1  UNL1        0.1007
     20 C           7.3902   42.2093    8.1596 C.ar    1  UNL1       -0.0004
     21 C           6.8166   42.2509    6.8875 C.ar    1  UNL1       -0.0026
     22 C           6.1618   43.4280    6.4906 C.ar    1  UNL1       -0.0002
     23 C           6.0867   44.5309    7.3628 C.ar    1  UNL1        0.0013
     24 C           6.6637   44.4669    8.6412 C.ar    1  UNL1        0.0144
     25 C           7.3097   43.2892    9.0140 C.ar    1  UNL1        0.0467
     26 C           8.4191   41.7150   10.1337 C.2     1  UNL1        0.2298
     27 O           9.0273   41.1285   11.0671 O.2     1  UNL1       -0.2744
     28 N           7.9332   43.0504   10.2632 N.am    1  UNL1       -0.2839
     29 H           8.0122   43.6582   11.0336 H       1  UNL1        0.1549
@<TRIPOS>BOND
     1    15    16    1
     2    16    14    1
     3     5    14    1
     4     6     7   ar
     5     6    13   ar
     6     7    12   ar
     7     8     9   ar
     8    10     5   ar
     9    11    12   ar
    10    11     3    1
    11    17     1    1
    12    17    18    1
    13    19    18    1
    14    19    20    1
    15    19    26    1
    16    21    22   ar
    17    23    24   ar
    18    25    28    1
    19    25    20   ar
    20     3     1   am
    21    28    26   am
    22     5     6   ar
    23     7     8   ar
    24     9    10   ar
    25    11    13   ar
    26     1     2    2
    27    20    21   ar
    28    22    23   ar
    29    24    25   ar
    30    26    27    2
    31     3     4    1
    32    28    29    1
@<TRIPOS>MOLECULE
MolPort-016-718-555 MCULE-1416712221 PubChem-46975451
 29 32 0 0 0
SMALL
GASTEIGER

@<TRIPOS>ATOM
      1 C          10.4444   41.4682    9.0941 C.2     1  UNL1        0.2275
      2 O          10.4852   42.4815    9.8406 O.2     1  UNL1       -0.2747
      3 N           9.2520   41.1133    8.3847 N.am    1  UNL1       -0.2641
      4 H           9.2982   40.3140    7.8118 H       1  UNL1        0.1567
      5 C           4.5363   41.7816    9.3213 C.ar    1  UNL1        0.1566
      6 C           5.8248   42.0845    8.8702 C.ar    1  UNL1        0.1230
      7 C           6.0977   43.3198    8.3013 C.ar    1  UNL1        0.0527
      8 C           5.1236   44.3028    8.1541 C.ar    1  UNL1        0.0083
      9 C           3.8268   44.0140    8.6036 C.ar    1  UNL1        0.0037
     10 C           3.5338   42.7649    9.1831 C.ar    1  UNL1        0.0385
     11 C           7.9985   41.8061    8.4259 C.ar    1  UNL1        0.1656
     12 S           7.7149   43.3826    7.8620 S.2     1  UNL1       -0.0513
     13 N           6.8831   41.2363    8.9419 N.ar    1  UNL1       -0.2209
     14 O           4.2740   40.5322    9.8971 O.3     1  UNL1       -0.4739
     15 C           3.3271   41.5509   11.8711 C.3     1  UNL1        0.0512
     16 C           4.0428   40.3456   11.2894 C.3     1  UNL1        0.2056
     17 C          11.6681   40.6420    8.9187 C.3     1  UNL1        0.0863
     18 C          12.8848   41.5432    8.8115 C.3     1  UNL1        0.0231
     19 C          13.5546   41.3680    7.4561 C.3     1  UNL1        0.1007
     20 C          14.8246   42.1464    7.4096 C.ar    1  UNL1       -0.0004
     21 C          15.9814   41.9540    8.1671 C.ar    1  UNL1       -0.0026
     22 C          17.0739   42.8070    7.9422 C.ar    1  UNL1       -0.0002
     23 C          16.9965   43.8242    6.9715 C.ar    1  UNL1        0.0013
     24 C          15.8266   43.9970    6.2147 C.ar    1  UNL1        0.0144
     25 C          14.7539   43.1398    6.4552 C.ar    1  UNL1        0.0467
     26 C          12.7879   42.0946    6.3852 C.2     1  UNL1        0.2298
     27 O          11.6206   41.7853    6.0291 O.2     1  UNL1       -0.2744
     28 N          13.5095   43.1660    5.7791 N.am    1  UNL1       -0.2839
     29 H          13.2142   43.7755    5.0646 H       1  UNL1        0.1549
@<TRIPOS>BOND
     1    15    16    1
     2    16    14    1
     3     5    14    1
     4     6     7   ar
     5     6    13   ar
     6     7    12   ar
     7     8     9   ar
     8    10     5   ar
     9    11    12   ar
    10    11     3    1
    11    17     1    1
    12    17    18    1
    13    19    18    1
    14    19    20    1
    15    19    26    1
    16    21    22   ar
    17    23    24   ar
    18    25    28    1
    19    25    20   ar
    20     3     1   am
    21    28    26   am
    22     5     6   ar
    23     7     8   ar
    24     9    10   ar
    25    11    13   ar
    26     1     2    2
    27    20    21   ar
    28    22    23   ar
    29    24    25   ar
    30    26    27    2
    31     3     4    1
    32    28    29    1
@<TRIPOS>MOLECULE
MolPort-016-718-555 MCULE-1416712221 PubChem-46975451
 29 32 0 0 0
SMALL
GASTEIGER

@<TRIPOS>ATOM
      1 C          10.2013   41.8682    8.4289 C.2     1  UNL1        0.2275
      2 O          10.5042   42.6727    9.3490 O.2     1  UNL1       -0.2747
      3 N          10.9147   40.6394    8.2493 N.am    1  UNL1       -0.2641
      4 H          10.6147   40.0557    7.5154 H       1  UNL1        0.1567
      5 C          15.5453   40.2138    9.6415 C.ar    1  UNL1        0.1566
      6 C          14.1634   39.9999    9.6498 C.ar    1  UNL1        0.1230
      7 C          13.5889   39.1554   10.5885 C.ar    1  UNL1        0.0527
      8 C          14.3423   38.4918   11.5522 C.ar    1  UNL1        0.0083
      9 C          15.7296   38.6981   11.5573 C.ar    1  UNL1        0.0037
     10 C          16.3278   39.5519   10.6113 C.ar    1  UNL1        0.0385
     11 C          12.0217   40.1753    9.0316 C.ar    1  UNL1        0.1656
     12 S          11.9306   39.1020   10.3445 S.2     1  UNL1       -0.0513
     13 N          13.2922   40.5714    8.7787 N.ar    1  UNL1       -0.2209
     14 O          16.1132   41.0714    8.6910 O.3     1  UNL1       -0.4739
     15 C          17.4186   43.1023    8.7448 C.3     1  UNL1        0.0512
     16 C          17.4369   41.5855    8.7930 C.3     1  UNL1        0.2056
     17 C           9.0587   42.1836    7.5313 C.3     1  UNL1        0.0863
     18 C           7.7713   41.6493    8.1321 C.3     1  UNL1        0.0231
     19 C           6.9934   42.7737    8.8007 C.3     1  UNL1        0.1007
     20 C           5.9077   42.2084    9.6507 C.ar    1  UNL1       -0.0004
     21 C           6.0322   41.4196   10.7959 C.ar    1  UNL1       -0.0026
     22 C           4.8605   41.0082   11.4515 C.ar    1  UNL1       -0.0002
     23 C           3.5972   41.3911   10.9613 C.ar    1  UNL1        0.0013
     24 C           3.4931   42.1909    9.8120 C.ar    1  UNL1        0.0144
     25 C           4.6689   42.5869    9.1765 C.ar    1  UNL1        0.0467
     26 C           6.1522   43.5107    7.7948 C.2     1  UNL1        0.2298
     27 O           6.6291   44.1870    6.8460 O.2     1  UNL1       -0.2744
     28 N           4.7474   43.3992    8.0188 N.am    1  UNL1       -0.2839
     29 H           4.0114   43.7916    7.4957 H       1  UNL1        0.1549
@<TRIPOS>BOND
     1    15    16    1
     2    16    14    1
     3     5    14    1
     4     6     7   ar
     5     6    13   ar
     6     7    12   ar
     7     8     9   ar
     8    10     5   ar
     9    11    12   ar
    10    11     3    1
    11    17     1    1
    12    17    18    1
    13    19    18    1
    14    19    20    1
    15    19    26    1
    16    21    22   ar
    17    23    24   ar
    18    25    28    1
    19    25    20   ar
    20     3     1   am
    21    28    26   am
    22     5     6   ar
    23     7     8   ar
    24     9    10   ar
    25    11    13   ar
    26     1     2    2
    27    20    21   ar
    28    22    23   ar
    29    24    25   ar
    30    26    27    2
    31     3     4    1
    32    28    29    1
