@<TRIPOS>MOLECULE
MolPort-007-711-095 ChemDiv-D485-0830 MCULE-3941068606 PubChem-20899143
 35 39 0 0 0
SMALL
GASTEIGER

@<TRIPOS>ATOM
      1 C          11.9407   41.6605    8.5860 C.ar    1  UNL1        0.1548
      2 C          10.6636   41.3841    8.1212 C.ar    1  UNL1        0.0859
      3 C           9.8319   42.2641    8.7841 C.ar    1  UNL1        0.0507
      4 C           8.4643   42.5165    8.6897 C.ar    1  UNL1        0.0044
      5 C           7.9297   43.5272    9.5084 C.ar    1  UNL1        0.0002
      6 C           8.7632   44.2608   10.3801 C.ar    1  UNL1        0.0031
      7 C          10.1440   44.0000   10.4383 C.ar    1  UNL1        0.0375
      8 C          10.6465   42.9944    9.6161 C.ar    1  UNL1        0.1462
      9 O          11.8992   42.6227    9.4905 O.2     1  UNL1       -0.4548
     10 C          10.1568   40.7842    5.6913 C.2     1  UNL1        0.2496
     11 O           9.9697   41.9799    5.3379 O.2     1  UNL1       -0.2698
     12 N          10.3440   40.4593    7.0740 N.am    1  UNL1       -0.2781
     13 H          10.2438   39.5135    7.3283 H       1  UNL1        0.1553
     14 C          10.1262   39.7089    4.6848 C.ar    1  UNL1        0.0537
     15 C          11.2704   38.9351    4.4403 C.ar    1  UNL1        0.0045
     16 C          11.2433   37.9153    3.4846 C.ar    1  UNL1        0.0001
     17 C          10.0721   37.6620    2.7659 C.ar    1  UNL1        0.0000
     18 C           8.9276   38.4283    3.0026 C.ar    1  UNL1        0.0001
     19 C           8.9546   39.4482    3.9584 C.ar    1  UNL1        0.0045
     20 C          13.1992   40.9764    8.1280 C.3     1  UNL1        0.1426
     21 C          14.2782   38.9537    8.7924 C.3     1  UNL1        0.0902
     22 C          15.0413   38.2399    9.9129 C.3     1  UNL1        0.0897
     23 C          13.1796   37.1647   10.9569 C.3     1  UNL1        0.0897
     24 C          13.6636   39.4368   11.5178 C.3     1  UNL1        0.0897
     25 C          12.9508   40.1074   10.3387 C.3     1  UNL1        0.0902
     26 N          13.8930   40.2949    9.2341 N.3     1  UNL1       -0.2617
     27 N          14.2461   38.1404   11.1446 N.3     1  UNL1       -0.2691
     28 C          15.4134   42.2235    7.8021 C.ar    1  UNL1        0.1364
     29 C          14.0808   41.9691    7.4099 C.ar    1  UNL1        0.0335
     30 C          13.5281   42.6755    6.3353 C.ar    1  UNL1        0.0005
     31 C          14.2866   43.6214    5.6430 C.ar    1  UNL1       -0.0001
     32 C          15.6056   43.8722    6.0233 C.ar    1  UNL1        0.0031
     33 C          16.1661   43.1779    7.0972 C.ar    1  UNL1        0.0366
     34 C          17.3706   41.4104    9.0857 C.3     1  UNL1        0.2525
     35 O          15.9691   41.5253    8.8808 O.3     1  UNL1       -0.4717
@<TRIPOS>BOND
     1    34    35    1
     2    28    35    1
     3    29    30   ar
     4    31    32   ar
     5    33    28   ar
     6    20    29    1
     7    20    26    1
     8    20     1    1
     9    21    26    1
    10    21    22    1
    11    22    27    1
    12    23    27    1
    13    24    27    1
    14    24    25    1
    15    25    26    1
    16     1     9   ar
    17     2    12    1
    18     2     3   ar
    19    10    14    1
    20    15    16   ar
    21    17    18   ar
    22    19    14   ar
    23     4     5   ar
    24     6     7   ar
    25     8     9   ar
    26     8     3   ar
    27    12    10   am
    28    28    29   ar
    29    30    31   ar
    30    32    33   ar
    31     1     2   ar
    32    10    11    2
    33    14    15   ar
    34    16    17   ar
    35    18    19   ar
    36     3     4   ar
    37     5     6   ar
    38     7     8   ar
    39    12    13    1
@<TRIPOS>MOLECULE
MolPort-007-711-095 ChemDiv-D485-0830 MCULE-3941068606 PubChem-20899143
 35 39 0 0 0
SMALL
GASTEIGER

@<TRIPOS>ATOM
      1 C          15.1199   41.2841    8.4963 C.ar    1  UNL1        0.1548
      2 C          14.3233   41.5888    7.4026 C.ar    1  UNL1        0.0859
      3 C          14.9077   42.6942    6.8179 C.ar    1  UNL1        0.0507
      4 C          14.6123   43.4108    5.6593 C.ar    1  UNL1        0.0044
      5 C          15.4495   44.4916    5.3298 C.ar    1  UNL1        0.0002
      6 C          16.5539   44.8190    6.1458 C.ar    1  UNL1        0.0031
      7 C          16.8417   44.0644    7.2972 C.ar    1  UNL1        0.0375
      8 C          15.9967   42.9992    7.5991 C.ar    1  UNL1        0.1462
      9 O          16.1096   42.1536    8.5968 O.2     1  UNL1       -0.4548
     10 C          11.9896   41.3216    6.4009 C.2     1  UNL1        0.2496
     11 O          11.6796   42.5327    6.5643 O.2     1  UNL1       -0.2698
     12 N          13.2128   40.8086    6.9421 N.am    1  UNL1       -0.2781
     13 H          13.2984   39.8298    7.0035 H       1  UNL1        0.1553
     14 C          11.0634   40.4160    5.6993 C.ar    1  UNL1        0.0537
     15 C          10.2503   39.5333    6.4255 C.ar    1  UNL1        0.0045
     16 C           9.3720   38.6723    5.7611 C.ar    1  UNL1        0.0001
     17 C           9.3006   38.6872    4.3656 C.ar    1  UNL1        0.0000
     18 C          10.1074   39.5631    3.6342 C.ar    1  UNL1        0.0001
     19 C          10.9858   40.4241    4.2985 C.ar    1  UNL1        0.0045
     20 C          14.9034   40.1287    9.4342 C.3     1  UNL1        0.1426
     21 C          13.7051   38.1734    8.7724 C.3     1  UNL1        0.0902
     22 C          13.7832   36.8382    8.0249 C.3     1  UNL1        0.0897
     23 C          14.3189   35.4399    9.8876 C.3     1  UNL1        0.0897
     24 C          16.0801   36.6249    8.7898 C.3     1  UNL1        0.0897
     25 C          15.9185   37.9682    9.5091 C.3     1  UNL1        0.0902
     26 N          15.0129   38.8302    8.7477 N.3     1  UNL1       -0.2617
     27 N          14.7929   35.9410    8.6036 N.3     1  UNL1       -0.2691
     28 C          13.3190   39.7008   11.4016 C.ar    1  UNL1        0.1364
     29 C          13.5863   40.3003   10.1511 C.ar    1  UNL1        0.0335
     30 C          12.5947   41.0620    9.5221 C.ar    1  UNL1        0.0005
     31 C          11.3484   41.2414   10.1254 C.ar    1  UNL1       -0.0001
     32 C          11.0816   40.6557   11.3635 C.ar    1  UNL1        0.0031
     33 C          12.0609   39.8890   11.9982 C.ar    1  UNL1        0.0366
     34 C          14.2027   37.5228   12.1857 C.3     1  UNL1        0.2525
     35 O          14.3044   38.9318   12.0321 O.3     1  UNL1       -0.4717
@<TRIPOS>BOND
     1    34    35    1
     2    28    35    1
     3    29    30   ar
     4    31    32   ar
     5    33    28   ar
     6    20    29    1
     7    20    26    1
     8    20     1    1
     9    21    26    1
    10    21    22    1
    11    22    27    1
    12    23    27    1
    13    24    27    1
    14    24    25    1
    15    25    26    1
    16     1     9   ar
    17     2    12    1
    18     2     3   ar
    19    10    14    1
    20    15    16   ar
    21    17    18   ar
    22    19    14   ar
    23     4     5   ar
    24     6     7   ar
    25     8     9   ar
    26     8     3   ar
    27    12    10   am
    28    28    29   ar
    29    30    31   ar
    30    32    33   ar
    31     1     2   ar
    32    10    11    2
    33    14    15   ar
    34    16    17   ar
    35    18    19   ar
    36     3     4   ar
    37     5     6   ar
    38     7     8   ar
    39    12    13    1
@<TRIPOS>MOLECULE
MolPort-007-711-095 ChemDiv-D485-0830 MCULE-3941068606 PubChem-20899143
 35 39 0 0 0
SMALL
GASTEIGER

@<TRIPOS>ATOM
      1 C          15.4673   41.1640    8.8435 C.ar    1  UNL1        0.1548
      2 C          14.4530   41.4882    7.9551 C.ar    1  UNL1        0.0859
      3 C          14.9602   42.5059    7.1725 C.ar    1  UNL1        0.0507
      4 C          14.4462   43.1905    6.0724 C.ar    1  UNL1        0.0044
      5 C          15.2584   44.1727    5.4780 C.ar    1  UNL1        0.0002
      6 C          16.5512   44.4355    5.9802 C.ar    1  UNL1        0.0031
      7 C          17.0531   43.7135    7.0778 C.ar    1  UNL1        0.0375
      8 C          16.2278   42.7462    7.6463 C.ar    1  UNL1        0.1462
      9 O          16.5159   41.9424    8.6433 O.2     1  UNL1       -0.4548
     10 C          11.9077   41.3947    7.7700 C.2     1  UNL1        0.2496
     11 O          11.7452   42.5937    8.1243 O.2     1  UNL1       -0.2698
     12 N          13.2062   40.7925    7.8296 N.am    1  UNL1       -0.2781
     13 H          13.2458   39.8100    7.7799 H       1  UNL1        0.1553
     14 C          10.7476   40.5916    7.3465 C.ar    1  UNL1        0.0537
     15 C           9.5143   40.7296    8.0004 C.ar    1  UNL1        0.0045
     16 C           8.4129   39.9671    7.6007 C.ar    1  UNL1        0.0001
     17 C           8.5367   39.0607    6.5445 C.ar    1  UNL1        0.0000
     18 C           9.7619   38.9164    5.8876 C.ar    1  UNL1        0.0001
     19 C          10.8634   39.6789    6.2874 C.ar    1  UNL1        0.0045
     20 C          15.3984   40.0795    9.8831 C.3     1  UNL1        0.1426
     21 C          16.6592   38.3528   10.9442 C.3     1  UNL1        0.0902
     22 C          17.6983   37.2446   10.7445 C.3     1  UNL1        0.0897
     23 C          19.6502   38.5096   11.2935 C.3     1  UNL1        0.0897
     24 C          18.7711   38.6481    9.0755 C.3     1  UNL1        0.0897
     25 C          17.6928   39.7052    9.3357 C.3     1  UNL1        0.0902
     26 N          16.4298   39.0484    9.6770 N.3     1  UNL1       -0.2617
     27 N          18.9731   37.7695   10.2360 N.3     1  UNL1       -0.2691
     28 C          13.6136   38.3960    9.1451 C.ar    1  UNL1        0.1364
     29 C          14.0021   39.5077    9.9245 C.ar    1  UNL1        0.0335
     30 C          13.0634   40.1361   10.7511 C.ar    1  UNL1        0.0005
     31 C          11.7503   39.6665   10.8182 C.ar    1  UNL1       -0.0001
     32 C          11.3633   38.5648   10.0542 C.ar    1  UNL1        0.0031
     33 C          12.2892   37.9332    9.2216 C.ar    1  UNL1        0.0366
     34 C          14.7484   36.3615    8.3011 C.3     1  UNL1        0.2525
     35 O          14.5462   37.7680    8.3110 O.3     1  UNL1       -0.4717
@<TRIPOS>BOND
     1    34    35    1
     2    28    35    1
     3    29    30   ar
     4    31    32   ar
     5    33    28   ar
     6    20    29    1
     7    20    26    1
     8    20     1    1
     9    21    26    1
    10    21    22    1
    11    22    27    1
    12    23    27    1
    13    24    27    1
    14    24    25    1
    15    25    26    1
    16     1     9   ar
    17     2    12    1
    18     2     3   ar
    19    10    14    1
    20    15    16   ar
    21    17    18   ar
    22    19    14   ar
    23     4     5   ar
    24     6     7   ar
    25     8     9   ar
    26     8     3   ar
    27    12    10   am
    28    28    29   ar
    29    30    31   ar
    30    32    33   ar
    31     1     2   ar
    32    10    11    2
    33    14    15   ar
    34    16    17   ar
    35    18    19   ar
    36     3     4   ar
    37     5     6   ar
    38     7     8   ar
    39    12    13    1
@<TRIPOS>MOLECULE
MolPort-007-711-095 ChemDiv-D485-0830 MCULE-3941068606 PubChem-20899143
 35 39 0 0 0
SMALL
GASTEIGER

@<TRIPOS>ATOM
      1 C          13.3678   42.0741    7.6799 C.ar    1  UNL1        0.1548
      2 C          14.7313   41.8202    7.6840 C.ar    1  UNL1        0.0859
      3 C          15.3073   42.8912    7.0309 C.ar    1  UNL1        0.0507
      4 C          16.6348   43.2385    6.7854 C.ar    1  UNL1        0.0044
      5 C          16.8779   44.4434    6.1022 C.ar    1  UNL1        0.0002
      6 C          15.8061   45.2680    5.6973 C.ar    1  UNL1        0.0031
      7 C          14.4771   44.9037    5.9782 C.ar    1  UNL1        0.0375
      8 C          14.2655   43.7059    6.6568 C.ar    1  UNL1        0.1462
      9 O          13.1160   43.2061    7.0467 O.2     1  UNL1       -0.4548
     10 C          16.4884   40.8215    9.2449 C.2     1  UNL1        0.2496
     11 O          17.1914   41.8677    9.2742 O.2     1  UNL1       -0.2698
     12 N          15.3694   40.7265    8.3554 N.am    1  UNL1       -0.2781
     13 H          15.0052   39.8270    8.1900 H       1  UNL1        0.1553
     14 C          16.8527   39.6696   10.0878 C.ar    1  UNL1        0.0537
     15 C          15.8941   39.0668   10.9158 C.ar    1  UNL1        0.0045
     16 C          16.2387   37.9746   11.7173 C.ar    1  UNL1        0.0001
     17 C          17.5443   37.4772   11.6972 C.ar    1  UNL1        0.0000
     18 C          18.5059   38.0720   10.8757 C.ar    1  UNL1        0.0001
     19 C          18.1614   39.1643   10.0741 C.ar    1  UNL1        0.0045
     20 C          12.3190   41.1993    8.3093 C.3     1  UNL1        0.1426
     21 C          12.6665   38.8430    8.1542 C.3     1  UNL1        0.0902
     22 C          13.3067   37.6160    8.8116 C.3     1  UNL1        0.0897
     23 C          11.4167   36.8890   10.0810 C.3     1  UNL1        0.0897
     24 C          12.8162   38.6071   10.9757 C.3     1  UNL1        0.0897
     25 C          12.1942   39.7984   10.2395 C.3     1  UNL1        0.0902
     26 N          12.9057   40.0270    8.9808 N.3     1  UNL1       -0.2617
     27 N          12.7859   37.3815   10.1655 N.3     1  UNL1       -0.2691
     28 C           9.9100   40.7335    7.5718 C.ar    1  UNL1        0.1364
     29 C          11.2875   40.8228    7.2737 C.ar    1  UNL1        0.0335
     30 C          11.7373   40.5259    5.9819 C.ar    1  UNL1        0.0005
     31 C          10.8344   40.1521    4.9847 C.ar    1  UNL1       -0.0001
     32 C           9.4717   40.0680    5.2731 C.ar    1  UNL1        0.0031
     33 C           9.0116   40.3563    6.5595 C.ar    1  UNL1        0.0366
     34 C           8.1478   41.5111    9.1304 C.3     1  UNL1        0.2525
     35 O           9.4552   41.0222    8.8639 O.3     1  UNL1       -0.4717
@<TRIPOS>BOND
     1    34    35    1
     2    28    35    1
     3    29    30   ar
     4    31    32   ar
     5    33    28   ar
     6    20    29    1
     7    20    26    1
     8    20     1    1
     9    21    26    1
    10    21    22    1
    11    22    27    1
    12    23    27    1
    13    24    27    1
    14    24    25    1
    15    25    26    1
    16     1     9   ar
    17     2    12    1
    18     2     3   ar
    19    10    14    1
    20    15    16   ar
    21    17    18   ar
    22    19    14   ar
    23     4     5   ar
    24     6     7   ar
    25     8     9   ar
    26     8     3   ar
    27    12    10   am
    28    28    29   ar
    29    30    31   ar
    30    32    33   ar
    31     1     2   ar
    32    10    11    2
    33    14    15   ar
    34    16    17   ar
    35    18    19   ar
    36     3     4   ar
    37     5     6   ar
    38     7     8   ar
    39    12    13    1
@<TRIPOS>MOLECULE
MolPort-007-711-095 ChemDiv-D485-0830 MCULE-3941068606 PubChem-20899143
 35 39 0 0 0
SMALL
GASTEIGER

@<TRIPOS>ATOM
      1 C          12.8535   41.8999    7.0593 C.ar    1  UNL1        0.1548
      2 C          14.1753   41.6716    7.4118 C.ar    1  UNL1        0.0859
      3 C          14.8773   42.7593    6.9329 C.ar    1  UNL1        0.0507
      4 C          16.2159   43.1338    7.0376 C.ar    1  UNL1        0.0044
      5 C          16.6011   44.3495    6.4448 C.ar    1  UNL1        0.0002
      6 C          15.6522   45.1576    5.7822 C.ar    1  UNL1        0.0031
      7 C          14.3033   44.7658    5.7113 C.ar    1  UNL1        0.0375
      8 C          13.9496   43.5579    6.3077 C.ar    1  UNL1        0.1462
      9 O          12.7491   43.0328    6.3877 O.2     1  UNL1       -0.4548
     10 C          15.6719   40.6540    9.2134 C.2     1  UNL1        0.2496
     11 O          16.4602   41.6374    9.2451 O.2     1  UNL1       -0.2698
     12 N          14.6424   40.5838    8.2196 N.am    1  UNL1       -0.2781
     13 H          14.2166   39.7075    8.0785 H       1  UNL1        0.1553
     14 C          15.8454   39.5442   10.1666 C.ar    1  UNL1        0.0537
     15 C          14.7701   39.1175   10.9598 C.ar    1  UNL1        0.0045
     16 C          14.9336   38.0655   11.8658 C.ar    1  UNL1        0.0001
     17 C          16.1737   37.4327   11.9856 C.ar    1  UNL1        0.0000
     18 C          17.2506   37.8517   11.1996 C.ar    1  UNL1        0.0001
     19 C          17.0872   38.9037   10.2935 C.ar    1  UNL1        0.0045
     20 C          11.6966   40.9996    7.3949 C.3     1  UNL1        0.1426
     21 C           9.3623   41.4435    7.1692 C.3     1  UNL1        0.0902
     22 C           8.2038   41.6356    6.1850 C.3     1  UNL1        0.0897
     23 C           7.4100   39.3816    6.1546 C.3     1  UNL1        0.0897
     24 C           9.2452   39.9781    4.7448 C.3     1  UNL1        0.0897
     25 C          10.3661   39.8465    5.7812 C.3     1  UNL1        0.0902
     26 N          10.5899   41.1381    6.4330 N.3     1  UNL1       -0.2617
     27 N           7.9898   40.4476    5.3471 N.3     1  UNL1       -0.2691
     28 C          11.1961   40.2091    9.7801 C.ar    1  UNL1        0.1364
     29 C          11.2643   41.2430    8.8205 C.ar    1  UNL1        0.0335
     30 C          10.8926   42.5445    9.1770 C.ar    1  UNL1        0.0005
     31 C          10.4650   42.8298   10.4751 C.ar    1  UNL1       -0.0001
     32 C          10.4014   41.8126   11.4282 C.ar    1  UNL1        0.0031
     33 C          10.7641   40.5092   11.0830 C.ar    1  UNL1        0.0366
     34 C          10.6147   37.9221    9.0248 C.3     1  UNL1        0.2525
     35 O          11.5596   38.9041    9.4273 O.3     1  UNL1       -0.4717
@<TRIPOS>BOND
     1    34    35    1
     2    28    35    1
     3    29    30   ar
     4    31    32   ar
     5    33    28   ar
     6    20    29    1
     7    20    26    1
     8    20     1    1
     9    21    26    1
    10    21    22    1
    11    22    27    1
    12    23    27    1
    13    24    27    1
    14    24    25    1
    15    25    26    1
    16     1     9   ar
    17     2    12    1
    18     2     3   ar
    19    10    14    1
    20    15    16   ar
    21    17    18   ar
    22    19    14   ar
    23     4     5   ar
    24     6     7   ar
    25     8     9   ar
    26     8     3   ar
    27    12    10   am
    28    28    29   ar
    29    30    31   ar
    30    32    33   ar
    31     1     2   ar
    32    10    11    2
    33    14    15   ar
    34    16    17   ar
    35    18    19   ar
    36     3     4   ar
    37     5     6   ar
    38     7     8   ar
    39    12    13    1
@<TRIPOS>MOLECULE
MolPort-007-711-095 ChemDiv-D485-0830 MCULE-3941068606 PubChem-20899143
 35 39 0 0 0
SMALL
GASTEIGER

@<TRIPOS>ATOM
      1 C          12.4616   41.9686    7.0399 C.ar    1  UNL1        0.1548
      2 C          13.7599   41.6511    7.4098 C.ar    1  UNL1        0.0859
      3 C          14.5468   42.6624    6.8965 C.ar    1  UNL1        0.0507
      4 C          15.9102   42.9349    6.9969 C.ar    1  UNL1        0.0044
      5 C          16.3918   44.0942    6.3630 C.ar    1  UNL1        0.0002
      6 C          15.5117   44.9489    5.6648 C.ar    1  UNL1        0.0031
      7 C          14.1366   44.6611    5.5987 C.ar    1  UNL1        0.0375
      8 C          13.6870   43.5072    6.2362 C.ar    1  UNL1        0.1462
      9 O          12.4489   43.0807    6.3267 O.2     1  UNL1       -0.4548
     10 C          15.3111   40.4978    9.0786 C.2     1  UNL1        0.2496
     11 O          16.2674   41.2958    8.8826 O.2     1  UNL1       -0.2698
     12 N          14.1372   40.5606    8.2599 N.am    1  UNL1       -0.2781
     13 H          13.5340   39.7830    8.2834 H       1  UNL1        0.1553
     14 C          15.4242   39.4589   10.1168 C.ar    1  UNL1        0.0537
     15 C          14.3392   39.1805   10.9611 C.ar    1  UNL1        0.0045
     16 C          14.4454   38.1959   11.9477 C.ar    1  UNL1        0.0001
     17 C          15.6377   37.4826   12.0977 C.ar    1  UNL1        0.0000
     18 C          16.7239   37.7538   11.2613 C.ar    1  UNL1        0.0001
     19 C          16.6177   38.7385   10.2746 C.ar    1  UNL1        0.0045
     20 C          11.2365   41.1742    7.3999 C.3     1  UNL1        0.1426
     21 C           9.6630   39.6259    6.4921 C.3     1  UNL1        0.0902
     22 C           8.7727   39.2895    5.2913 C.3     1  UNL1        0.0897
     23 C          10.2992   37.8649    4.1285 C.3     1  UNL1        0.0897
     24 C          10.4857   40.2308    3.8470 C.3     1  UNL1        0.0897
     25 C          11.3135   40.5334    5.1004 C.3     1  UNL1        0.0902
     26 N          10.4211   40.8475    6.2176 N.3     1  UNL1       -0.2617
     27 N           9.5530   39.1151    4.0585 N.3     1  UNL1       -0.2691
     28 C           9.2245   42.5463    8.1959 C.ar    1  UNL1        0.1364
     29 C          10.4546   41.9062    8.4635 C.ar    1  UNL1        0.0335
     30 C          11.0012   41.9664    9.7506 C.ar    1  UNL1        0.0005
     31 C          10.3355   42.6453   10.7730 C.ar    1  UNL1       -0.0001
     32 C           9.1170   43.2745   10.5148 C.ar    1  UNL1        0.0031
     33 C           8.5645   43.2262    9.2334 C.ar    1  UNL1        0.0366
     34 C           7.3617   42.9453    6.6116 C.3     1  UNL1        0.2525
     35 O           8.6765   42.4957    6.9087 O.3     1  UNL1       -0.4717
@<TRIPOS>BOND
     1    34    35    1
     2    28    35    1
     3    29    30   ar
     4    31    32   ar
     5    33    28   ar
     6    20    29    1
     7    20    26    1
     8    20     1    1
     9    21    26    1
    10    21    22    1
    11    22    27    1
    12    23    27    1
    13    24    27    1
    14    24    25    1
    15    25    26    1
    16     1     9   ar
    17     2    12    1
    18     2     3   ar
    19    10    14    1
    20    15    16   ar
    21    17    18   ar
    22    19    14   ar
    23     4     5   ar
    24     6     7   ar
    25     8     9   ar
    26     8     3   ar
    27    12    10   am
    28    28    29   ar
    29    30    31   ar
    30    32    33   ar
    31     1     2   ar
    32    10    11    2
    33    14    15   ar
    34    16    17   ar
    35    18    19   ar
    36     3     4   ar
    37     5     6   ar
    38     7     8   ar
    39    12    13    1
@<TRIPOS>MOLECULE
MolPort-007-711-095 ChemDiv-D485-0830 MCULE-3941068606 PubChem-20899143
 35 39 0 0 0
SMALL
GASTEIGER

@<TRIPOS>ATOM
      1 C          11.8754   42.1266    6.8058 C.ar    1  UNL1        0.1548
      2 C          12.8528   41.2634    7.2779 C.ar    1  UNL1        0.0859
      3 C          14.0291   41.9850    7.2439 C.ar    1  UNL1        0.0507
      4 C          15.3267   41.6865    7.6564 C.ar    1  UNL1        0.0044
      5 C          16.3056   42.6843    7.5024 C.ar    1  UNL1        0.0002
      6 C          15.9684   43.9432    6.9602 C.ar    1  UNL1        0.0031
      7 C          14.6460   44.2248    6.5732 C.ar    1  UNL1        0.0375
      8 C          13.6969   43.2188    6.7376 C.ar    1  UNL1        0.1462
      9 O          12.4120   43.2887    6.4781 O.2     1  UNL1       -0.4548
     10 C          13.3861   39.3006    8.8220 C.2     1  UNL1        0.2496
     11 O          14.5290   39.7341    9.1311 O.2     1  UNL1       -0.2698
     12 N          12.6171   39.9509    7.8032 N.am    1  UNL1       -0.2781
     13 H          11.8564   39.4500    7.4294 H       1  UNL1        0.1553
     14 C          12.8624   38.0862    9.4708 C.ar    1  UNL1        0.0537
     15 C          13.7424   37.1266    9.9927 C.ar    1  UNL1        0.0045
     16 C          13.2469   35.9729   10.6074 C.ar    1  UNL1        0.0001
     17 C          11.8677   35.7702   10.7044 C.ar    1  UNL1        0.0000
     18 C          10.9837   36.7208   10.1868 C.ar    1  UNL1        0.0001
     19 C          11.4792   37.8745    9.5721 C.ar    1  UNL1        0.0045
     20 C          10.4120   41.8012    6.6876 C.3     1  UNL1        0.1426
     21 C           8.6475   42.4688    8.1498 C.3     1  UNL1        0.0902
     22 C           7.9559   42.2112    9.4926 C.3     1  UNL1        0.0897
     23 C           9.1589   43.8072   10.8031 C.3     1  UNL1        0.0897
     24 C          10.1302   41.6565   10.4260 C.3     1  UNL1        0.0897
     25 C          10.7427   41.9339    9.0491 C.3     1  UNL1        0.0902
     26 N           9.7893   41.5651    8.0013 N.3     1  UNL1       -0.2617
     27 N           8.8722   42.3889   10.6275 N.3     1  UNL1       -0.2691
     28 C           9.0378   39.8832    5.6891 C.ar    1  UNL1        0.1364
     29 C          10.2274   40.6427    5.7378 C.ar    1  UNL1        0.0335
     30 C          11.2989   40.3058    4.9027 C.ar    1  UNL1        0.0005
     31 C          11.1970   39.2321    4.0160 C.ar    1  UNL1       -0.0001
     32 C          10.0215   38.4823    3.9602 C.ar    1  UNL1        0.0031
     33 C           8.9478   38.8052    4.7925 C.ar    1  UNL1        0.0366
     34 C           6.6583   39.6823    6.3503 C.3     1  UNL1        0.2525
     35 O           7.9654   40.2109    6.5272 O.3     1  UNL1       -0.4717
@<TRIPOS>BOND
     1    34    35    1
     2    28    35    1
     3    29    30   ar
     4    31    32   ar
     5    33    28   ar
     6    20    29    1
     7    20    26    1
     8    20     1    1
     9    21    26    1
    10    21    22    1
    11    22    27    1
    12    23    27    1
    13    24    27    1
    14    24    25    1
    15    25    26    1
    16     1     9   ar
    17     2    12    1
    18     2     3   ar
    19    10    14    1
    20    15    16   ar
    21    17    18   ar
    22    19    14   ar
    23     4     5   ar
    24     6     7   ar
    25     8     9   ar
    26     8     3   ar
    27    12    10   am
    28    28    29   ar
    29    30    31   ar
    30    32    33   ar
    31     1     2   ar
    32    10    11    2
    33    14    15   ar
    34    16    17   ar
    35    18    19   ar
    36     3     4   ar
    37     5     6   ar
    38     7     8   ar
    39    12    13    1
@<TRIPOS>MOLECULE
MolPort-007-711-095 ChemDiv-D485-0830 MCULE-3941068606 PubChem-20899143
 35 39 0 0 0
SMALL
GASTEIGER

@<TRIPOS>ATOM
      1 C          11.4101   42.0450    8.4408 C.ar    1  UNL1        0.1548
      2 C          11.4005   41.0156    9.3701 C.ar    1  UNL1        0.0859
      3 C          10.5020   41.4057   10.3426 C.ar    1  UNL1        0.0507
      4 C          10.0160   40.7681   11.4830 C.ar    1  UNL1        0.0044
      5 C           9.0618   41.4530   12.2563 C.ar    1  UNL1        0.0002
      6 C           8.6118   42.7344   11.8716 C.ar    1  UNL1        0.0031
      7 C           9.1028   43.3446   10.7035 C.ar    1  UNL1        0.0375
      8 C          10.0462   42.6434    9.9563 C.ar    1  UNL1        0.1462
      9 O          10.5973   43.0136    8.8239 O.2     1  UNL1       -0.4548
     10 C          12.5799   38.9546   10.3095 C.2     1  UNL1        0.2496
     11 O          12.6858   39.4306   11.4722 O.2     1  UNL1       -0.2698
     12 N          12.0963   39.7698    9.2354 N.am    1  UNL1       -0.2781
     13 H          12.2567   39.4443    8.3202 H       1  UNL1        0.1553
     14 C          13.0089   37.5709   10.0419 C.ar    1  UNL1        0.0537
     15 C          14.0851   37.3178    9.1785 C.ar    1  UNL1        0.0045
     16 C          14.4925   36.0053    8.9224 C.ar    1  UNL1        0.0001
     17 C          13.8264   34.9362    9.5273 C.ar    1  UNL1        0.0000
     18 C          12.7528   35.1792   10.3884 C.ar    1  UNL1        0.0001
     19 C          12.3454   36.4917   10.6446 C.ar    1  UNL1        0.0045
     20 C          12.2181   42.0635    7.1726 C.3     1  UNL1        0.1426
     21 C          11.0243   41.4888    5.1872 C.3     1  UNL1        0.0902
     22 C          10.6702   40.3642    4.2087 C.3     1  UNL1        0.0897
     23 C           8.6117   39.6800    5.2117 C.3     1  UNL1        0.0897
     24 C          10.6635   38.8252    6.0896 C.3     1  UNL1        0.0897
     25 C          11.0181   40.0057    6.9997 C.3     1  UNL1        0.0902
     26 N          11.8556   40.9584    6.2689 N.3     1  UNL1       -0.2617
     27 N           9.9649   39.2586    4.8715 N.3     1  UNL1       -0.2691
     28 C          14.5751   43.0516    6.9934 C.ar    1  UNL1        0.1364
     29 C          13.6889   42.0816    7.5112 C.ar    1  UNL1        0.0335
     30 C          14.1788   41.0725    8.3483 C.ar    1  UNL1        0.0005
     31 C          15.5335   41.0235    8.6827 C.ar    1  UNL1       -0.0001
     32 C          16.4120   41.9831    8.1780 C.ar    1  UNL1        0.0031
     33 C          15.9361   42.9913    7.3374 C.ar    1  UNL1        0.0366
     34 C          14.9224   45.0795    5.6126 C.3     1  UNL1        0.2525
     35 O          14.0921   44.0590    6.1497 O.3     1  UNL1       -0.4717
@<TRIPOS>BOND
     1    34    35    1
     2    28    35    1
     3    29    30   ar
     4    31    32   ar
     5    33    28   ar
     6    20    29    1
     7    20    26    1
     8    20     1    1
     9    21    26    1
    10    21    22    1
    11    22    27    1
    12    23    27    1
    13    24    27    1
    14    24    25    1
    15    25    26    1
    16     1     9   ar
    17     2    12    1
    18     2     3   ar
    19    10    14    1
    20    15    16   ar
    21    17    18   ar
    22    19    14   ar
    23     4     5   ar
    24     6     7   ar
    25     8     9   ar
    26     8     3   ar
    27    12    10   am
    28    28    29   ar
    29    30    31   ar
    30    32    33   ar
    31     1     2   ar
    32    10    11    2
    33    14    15   ar
    34    16    17   ar
    35    18    19   ar
    36     3     4   ar
    37     5     6   ar
    38     7     8   ar
    39    12    13    1
@<TRIPOS>MOLECULE
MolPort-007-711-095 ChemDiv-D485-0830 MCULE-3941068606 PubChem-20899143
 35 39 0 0 0
SMALL
GASTEIGER

@<TRIPOS>ATOM
      1 C          12.6305   42.3798    7.2158 C.ar    1  UNL1        0.1548
      2 C          13.8504   41.7857    7.5024 C.ar    1  UNL1        0.0859
      3 C          14.8071   42.6898    7.0870 C.ar    1  UNL1        0.0507
      4 C          16.1983   42.6922    7.1739 C.ar    1  UNL1        0.0044
      5 C          16.8815   43.8117    6.6663 C.ar    1  UNL1        0.0002
      6 C          16.1694   44.8929    6.1037 C.ar    1  UNL1        0.0031
      7 C          14.7642   44.8737    6.0494 C.ar    1  UNL1        0.0375
      8 C          14.1136   43.7531    6.5601 C.ar    1  UNL1        0.1462
      9 O          12.8185   43.5541    6.6402 O.2     1  UNL1       -0.4548
     10 C          15.1615   40.1843    8.9984 C.2     1  UNL1        0.2496
     11 O          16.2418   40.8263    8.8966 O.2     1  UNL1       -0.2698
     12 N          14.0261   40.5486    8.2044 N.am    1  UNL1       -0.2781
     13 H          13.2993   39.8881    8.1345 H       1  UNL1        0.1553
     14 C          15.0831   39.0187    9.8957 C.ar    1  UNL1        0.0537
     15 C          15.0426   39.1973   11.2865 C.ar    1  UNL1        0.0045
     16 C          14.9697   38.0921   12.1394 C.ar    1  UNL1        0.0001
     17 C          14.9372   36.8001   11.6080 C.ar    1  UNL1        0.0000
     18 C          14.9776   36.6129   10.2236 C.ar    1  UNL1        0.0001
     19 C          15.0506   37.7181    9.3706 C.ar    1  UNL1        0.0045
     20 C          11.2823   41.7867    7.5193 C.3     1  UNL1        0.1426
     21 C          10.7500   43.0656    9.4630 C.3     1  UNL1        0.0902
     22 C           9.8239   44.1318   10.0574 C.3     1  UNL1        0.0897
     23 C           8.1964   42.6680   11.0168 C.3     1  UNL1        0.0897
     24 C           8.0241   43.2250    8.6991 C.3     1  UNL1        0.0897
     25 C           9.0158   42.1919    8.1539 C.3     1  UNL1        0.0902
     26 N          10.3539   42.7815    8.0829 N.3     1  UNL1       -0.2617
     27 N           8.4148   43.7163   10.0278 N.3     1  UNL1       -0.2691
     28 C          11.3446   39.2567    7.9182 C.ar    1  UNL1        0.1364
     29 C          11.4508   40.5775    8.4067 C.ar    1  UNL1        0.0335
     30 C          11.6916   40.7952    9.7683 C.ar    1  UNL1        0.0005
     31 C          11.8373   39.7176   10.6441 C.ar    1  UNL1       -0.0001
     32 C          11.7387   38.4107   10.1651 C.ar    1  UNL1        0.0031
     33 C          11.4930   38.1810    8.8099 C.ar    1  UNL1        0.0366
     34 C           9.7854   38.9440    6.0181 C.3     1  UNL1        0.2525
     35 O          11.0965   39.0329    6.5588 O.3     1  UNL1       -0.4717
@<TRIPOS>BOND
     1    34    35    1
     2    28    35    1
     3    29    30   ar
     4    31    32   ar
     5    33    28   ar
     6    20    29    1
     7    20    26    1
     8    20     1    1
     9    21    26    1
    10    21    22    1
    11    22    27    1
    12    23    27    1
    13    24    27    1
    14    24    25    1
    15    25    26    1
    16     1     9   ar
    17     2    12    1
    18     2     3   ar
    19    10    14    1
    20    15    16   ar
    21    17    18   ar
    22    19    14   ar
    23     4     5   ar
    24     6     7   ar
    25     8     9   ar
    26     8     3   ar
    27    12    10   am
    28    28    29   ar
    29    30    31   ar
    30    32    33   ar
    31     1     2   ar
    32    10    11    2
    33    14    15   ar
    34    16    17   ar
    35    18    19   ar
    36     3     4   ar
    37     5     6   ar
    38     7     8   ar
    39    12    13    1
@<TRIPOS>MOLECULE
MolPort-007-711-095 ChemDiv-D485-0830 MCULE-3941068606 PubChem-20899143
 35 39 0 0 0
SMALL
GASTEIGER

@<TRIPOS>ATOM
      1 C          11.9349   41.6497    7.5144 C.ar    1  UNL1        0.1548
      2 C          13.0032   40.9723    8.0830 C.ar    1  UNL1        0.0859
      3 C          14.1183   41.7314    7.7905 C.ar    1  UNL1        0.0507
      4 C          15.4598   41.6072    8.1485 C.ar    1  UNL1        0.0044
      5 C          16.3501   42.5965    7.6944 C.ar    1  UNL1        0.0002
      6 C          15.8850   43.6781    6.9158 C.ar    1  UNL1        0.0031
      7 C          14.5219   43.7903    6.5883 C.ar    1  UNL1        0.0375
      8 C          13.6626   42.7971    7.0518 C.ar    1  UNL1        0.1462
      9 O          12.3611   42.7346    6.8922 O.2     1  UNL1       -0.4548
     10 C          12.2913   38.5614    8.5323 C.2     1  UNL1        0.2496
     11 O          11.5254   38.5033    7.5325 O.2     1  UNL1       -0.2698
     12 N          12.9009   39.8030    8.9053 N.am    1  UNL1       -0.2781
     13 H          13.2850   39.8580    9.8101 H       1  UNL1        0.1553
     14 C          12.5159   37.3600    9.3546 C.ar    1  UNL1        0.0537
     15 C          13.7597   36.7117    9.3363 C.ar    1  UNL1        0.0045
     16 C          13.9739   35.5707   10.1150 C.ar    1  UNL1        0.0001
     17 C          12.9457   35.0691   10.9174 C.ar    1  UNL1        0.0000
     18 C          11.7031   35.7083   10.9413 C.ar    1  UNL1        0.0001
     19 C          11.4889   36.8494   10.1626 C.ar    1  UNL1        0.0045
     20 C          10.4945   41.2252    7.5950 C.3     1  UNL1        0.1426
     21 C           8.9583   39.9050    6.3323 C.3     1  UNL1        0.0902
     22 C           8.2952   39.7020    4.9661 C.3     1  UNL1        0.0897
     23 C           9.8374   38.1077    4.0763 C.3     1  UNL1        0.0897
     24 C          10.3683   40.4332    3.9299 C.3     1  UNL1        0.0897
     25 C          10.9560   40.6100    5.3339 C.3     1  UNL1        0.0902
     26 N           9.9016   41.0220    6.2621 N.3     1  UNL1       -0.2617
     27 N           9.2814   39.4445    3.9076 N.3     1  UNL1       -0.2691
     28 C           8.5758   42.8854    7.9507 C.ar    1  UNL1        0.1364
     29 C           9.7222   42.2158    8.4321 C.ar    1  UNL1        0.0335
     30 C          10.1939   42.4892    9.7212 C.ar    1  UNL1        0.0005
     31 C           9.5346   43.4105   10.5373 C.ar    1  UNL1       -0.0001
     32 C           8.3981   44.0703   10.0681 C.ar    1  UNL1        0.0031
     33 C           7.9214   43.8102    8.7818 C.ar    1  UNL1        0.0366
     34 C           6.8132   43.0159    6.2142 C.3     1  UNL1        0.2525
     35 O           8.1037   42.6214    6.6595 O.3     1  UNL1       -0.4717
@<TRIPOS>BOND
     1    34    35    1
     2    28    35    1
     3    29    30   ar
     4    31    32   ar
     5    33    28   ar
     6    20    29    1
     7    20    26    1
     8    20     1    1
     9    21    26    1
    10    21    22    1
    11    22    27    1
    12    23    27    1
    13    24    27    1
    14    24    25    1
    15    25    26    1
    16     1     9   ar
    17     2    12    1
    18     2     3   ar
    19    10    14    1
    20    15    16   ar
    21    17    18   ar
    22    19    14   ar
    23     4     5   ar
    24     6     7   ar
    25     8     9   ar
    26     8     3   ar
    27    12    10   am
    28    28    29   ar
    29    30    31   ar
    30    32    33   ar
    31     1     2   ar
    32    10    11    2
    33    14    15   ar
    34    16    17   ar
    35    18    19   ar
    36     3     4   ar
    37     5     6   ar
    38     7     8   ar
    39    12    13    1
