@<TRIPOS>MOLECULE
MolPort-002-117-240 1194452 CSSS00160388997 MCULE-4255255336 PubChem-1354541 ZINC000001194452
 26 28 0 0 0
SMALL
GASTEIGER

@<TRIPOS>ATOM
      1 C          11.1177   41.7274    7.4320 C.2     1  UNL1        0.2511
      2 O          11.2647   42.2131    8.5862 O.2     1  UNL1       -0.2698
      3 N          12.1919   41.7642    6.4816 N.am    1  UNL1       -0.2606
      4 H          12.0140   41.3687    5.5977 H       1  UNL1        0.1571
      5 C          16.6792   42.0871    8.3040 C.ar    1  UNL1        0.1566
      6 C          15.5595   42.4392    7.5439 C.ar    1  UNL1        0.1230
      7 C          13.4971   42.3180    6.6878 C.ar    1  UNL1        0.1659
      8 C          15.5779   43.5779    6.7517 C.ar    1  UNL1        0.0527
      9 C          16.6895   44.4113    6.6726 C.ar    1  UNL1        0.0083
     10 C          17.8209   44.0696    7.4282 C.ar    1  UNL1        0.0037
     11 C          17.8179   42.9176    8.2368 C.ar    1  UNL1        0.0385
     12 N          14.3998   41.7329    7.5113 N.ar    1  UNL1       -0.2208
     13 S          14.1027   43.7327    5.9695 S.2     1  UNL1       -0.0513
     14 O          16.6495   40.9331    9.0970 O.3     1  UNL1       -0.4739
     15 C          15.7400   39.1148   10.3999 C.3     1  UNL1        0.0512
     16 C          15.4506   40.2355    9.4184 C.3     1  UNL1        0.2056
     17 C           9.8308   41.1164    7.0554 C.ar    1  UNL1        0.0597
     18 C           8.6925   41.3126    7.8503 C.ar    1  UNL1        0.0416
     19 C           7.4684   40.7362    7.4994 C.ar    1  UNL1        0.1419
     20 C           7.3841   39.9535    6.3377 C.ar    1  UNL1        0.0738
     21 C           8.5151   39.7486    5.5327 C.ar    1  UNL1        0.1419
     22 C           9.7315   40.3323    5.8979 C.ar    1  UNL1        0.0416
     23 C           6.4563   41.5609    9.6000 C.3     1  UNL1        0.2525
     24 O           6.3574   40.9558    8.3181 O.3     1  UNL1       -0.4713
     25 C           9.5911   38.7464    3.5438 C.3     1  UNL1        0.2525
     26 O           8.4581   38.9738    4.3711 O.3     1  UNL1       -0.4713
@<TRIPOS>BOND
     1    15    16    1
     2    16    14    1
     3     5    14    1
     4     6    12   ar
     5     7     3    1
     6     7    13   ar
     7     1    17    1
     8    18    19   ar
     9    19    24    1
    10    23    24    1
    11    20    21   ar
    12    21    26    1
    13    25    26    1
    14    22    17   ar
    15     8    13   ar
    16     8     6   ar
    17     9    10   ar
    18    11     5   ar
    19     3     1   am
    20     5     6   ar
    21     7    12   ar
    22     1     2    2
    23    17    18   ar
    24    19    20   ar
    25    21    22   ar
    26     8     9   ar
    27    10    11   ar
    28     3     4    1
@<TRIPOS>MOLECULE
MolPort-002-117-240 1194452 CSSS00160388997 MCULE-4255255336 PubChem-1354541 ZINC000001194452
 26 28 0 0 0
SMALL
GASTEIGER

@<TRIPOS>ATOM
      1 C          11.1308   41.6948    7.4268 C.2     1  UNL1        0.2511
      2 O          11.2833   42.1303    8.6002 O.2     1  UNL1       -0.2698
      3 N          12.1988   41.7775    6.4722 N.am    1  UNL1       -0.2606
      4 H          12.0168   41.4202    5.5730 H       1  UNL1        0.1571
      5 C          16.6785   42.0655    8.3190 C.ar    1  UNL1        0.1566
      6 C          15.5620   42.4320    7.5611 C.ar    1  UNL1        0.1230
      7 C          13.5032   42.3272    6.6943 C.ar    1  UNL1        0.1659
      8 C          15.5837   43.5855    6.7906 C.ar    1  UNL1        0.0527
      9 C          16.6956   44.4201    6.7319 C.ar    1  UNL1        0.0083
     10 C          17.8238   44.0642    7.4856 C.ar    1  UNL1        0.0037
     11 C          17.8174   42.8970    8.2723 C.ar    1  UNL1        0.0385
     12 N          14.4024   41.7266    7.5103 N.ar    1  UNL1       -0.2208
     13 S          14.1118   43.7552    6.0054 S.2     1  UNL1       -0.0513
     14 O          16.6455   40.8968    9.0900 O.3     1  UNL1       -0.4739
     15 C          15.7449   39.0067   10.2932 C.3     1  UNL1        0.0512
     16 C          15.4393   40.2334    9.4536 C.3     1  UNL1        0.2056
     17 C           9.8439   41.0955    7.0319 C.ar    1  UNL1        0.0597
     18 C           9.7528   40.3090    5.8746 C.ar    1  UNL1        0.0416
     19 C           8.5355   39.7373    5.4938 C.ar    1  UNL1        0.1419
     20 C           7.3956   39.9566    6.2823 C.ar    1  UNL1        0.0738
     21 C           7.4720   40.7415    7.4430 C.ar    1  UNL1        0.1419
     22 C           8.6970   41.3058    7.8097 C.ar    1  UNL1        0.0416
     23 C           9.6325   38.7001    3.5348 C.3     1  UNL1        0.2525
     24 O           8.4864   38.9599    4.3337 O.3     1  UNL1       -0.4713
     25 C           6.4476   41.5033    9.5615 C.3     1  UNL1        0.2525
     26 O           6.3520   40.9753    8.2455 O.3     1  UNL1       -0.4713
@<TRIPOS>BOND
     1    15    16    1
     2    16    14    1
     3     5    14    1
     4     6    12   ar
     5     7     3    1
     6     7    13   ar
     7     1    17    1
     8    18    19   ar
     9    19    24    1
    10    23    24    1
    11    20    21   ar
    12    21    26    1
    13    25    26    1
    14    22    17   ar
    15     8    13   ar
    16     8     6   ar
    17     9    10   ar
    18    11     5   ar
    19     3     1   am
    20     5     6   ar
    21     7    12   ar
    22     1     2    2
    23    17    18   ar
    24    19    20   ar
    25    21    22   ar
    26     8     9   ar
    27    10    11   ar
    28     3     4    1
@<TRIPOS>MOLECULE
MolPort-002-117-240 1194452 CSSS00160388997 MCULE-4255255336 PubChem-1354541 ZINC000001194452
 26 28 0 0 0
SMALL
GASTEIGER

@<TRIPOS>ATOM
      1 C          11.9415   40.7276   10.1387 C.2     1  UNL1        0.2511
      2 O          12.5536   41.2946    9.1934 O.2     1  UNL1       -0.2698
      3 N          12.5966   39.7364   10.9429 N.am    1  UNL1       -0.2606
      4 H          12.0646   39.3307   11.6651 H       1  UNL1        0.1571
      5 C          17.3398   40.0195    9.9511 C.ar    1  UNL1        0.1566
      6 C          16.1280   39.4388   10.3380 C.ar    1  UNL1        0.1230
      7 C          13.9464   39.2768   10.8020 C.ar    1  UNL1        0.1659
      8 C          16.0737   38.1001   10.6977 C.ar    1  UNL1        0.0527
      9 C          17.1997   37.2824   10.6937 C.ar    1  UNL1        0.0083
     10 C          18.4227   37.8517   10.3095 C.ar    1  UNL1        0.0037
     11 C          18.4943   39.2085    9.9418 C.ar    1  UNL1        0.0385
     12 N          14.9426   40.0995   10.3947 N.ar    1  UNL1       -0.2208
     13 S          14.4976   37.6996   11.1068 S.2     1  UNL1       -0.0513
     14 O          17.3823   41.3731    9.5937 O.3     1  UNL1       -0.4739
     15 C          17.5434   43.1476    7.9639 C.3     1  UNL1        0.0512
     16 C          16.8218   41.8816    8.3876 C.3     1  UNL1        0.2056
     17 C          10.5402   41.0860   10.4202 C.ar    1  UNL1        0.0597
     18 C           9.6568   41.3745    9.3702 C.ar    1  UNL1        0.0416
     19 C           8.3263   41.7151    9.6295 C.ar    1  UNL1        0.1419
     20 C           7.8755   41.7676   10.9574 C.ar    1  UNL1        0.0738
     21 C           8.7484   41.4814   12.0182 C.ar    1  UNL1        0.1419
     22 C          10.0759   41.1423   11.7415 C.ar    1  UNL1        0.0416
     23 C           7.2077   43.3197    8.1158 C.3     1  UNL1        0.2525
     24 O           7.4776   41.9955    8.5553 O.3     1  UNL1       -0.4713
     25 C           9.1516   41.1210   14.4318 C.3     1  UNL1        0.2525
     26 O           8.3249   41.5264   13.3492 O.3     1  UNL1       -0.4713
@<TRIPOS>BOND
     1    15    16    1
     2    16    14    1
     3     5    14    1
     4     6    12   ar
     5     7     3    1
     6     7    13   ar
     7     1    17    1
     8    18    19   ar
     9    19    24    1
    10    23    24    1
    11    20    21   ar
    12    21    26    1
    13    25    26    1
    14    22    17   ar
    15     8    13   ar
    16     8     6   ar
    17     9    10   ar
    18    11     5   ar
    19     3     1   am
    20     5     6   ar
    21     7    12   ar
    22     1     2    2
    23    17    18   ar
    24    19    20   ar
    25    21    22   ar
    26     8     9   ar
    27    10    11   ar
    28     3     4    1
@<TRIPOS>MOLECULE
MolPort-002-117-240 1194452 CSSS00160388997 MCULE-4255255336 PubChem-1354541 ZINC000001194452
 26 28 0 0 0
SMALL
GASTEIGER

@<TRIPOS>ATOM
      1 C          10.7251   42.4963    9.1129 C.2     1  UNL1        0.2511
      2 O          10.5815   43.4862    9.8805 O.2     1  UNL1       -0.2698
      3 N           9.6023   41.9518    8.4047 N.am    1  UNL1       -0.2606
      4 H           9.7800   41.1790    7.8213 H       1  UNL1        0.1571
      5 C           5.1045   42.4370   10.1642 C.ar    1  UNL1        0.1566
      6 C           6.1846   42.6228    9.2957 C.ar    1  UNL1        0.1230
      7 C           8.2488   42.4185    8.4601 C.ar    1  UNL1        0.1659
      8 C           6.0537   43.4290    8.1743 C.ar    1  UNL1        0.0527
      9 C           4.8654   44.0826    7.8625 C.ar    1  UNL1        0.0083
     10 C           3.7738   43.9070    8.7257 C.ar    1  UNL1        0.0037
     11 C           3.8907   43.0922    9.8675 C.ar    1  UNL1        0.0385
     12 N           7.4083   42.0567    9.4591 N.ar    1  UNL1       -0.2208
     13 S           7.5064   43.4536    7.3369 S.2     1  UNL1       -0.0513
     14 O           5.2503   41.6236   11.2950 O.3     1  UNL1       -0.4739
     15 C           3.5723   40.1391   10.3940 C.3     1  UNL1        0.0512
     16 C           4.3476   40.5729   11.6244 C.3     1  UNL1        0.2056
     17 C          12.0584   41.8926    8.9415 C.ar    1  UNL1        0.0597
     18 C          12.4369   40.7794    9.7055 C.ar    1  UNL1        0.0416
     19 C          13.6998   40.2015    9.5483 C.ar    1  UNL1        0.1419
     20 C          14.5944   40.7459    8.6143 C.ar    1  UNL1        0.0738
     21 C          14.2292   41.8598    7.8429 C.ar    1  UNL1        0.1419
     22 C          12.9623   42.4256    8.0123 C.ar    1  UNL1        0.0416
     23 C          13.8630   39.0643   11.7386 C.3     1  UNL1        0.2525
     24 O          14.0388   39.0930   10.3288 O.3     1  UNL1       -0.4713
     25 C          16.3248   43.0436    7.2730 C.3     1  UNL1        0.2525
     26 O          15.1011   42.4210    6.9060 O.3     1  UNL1       -0.4713
@<TRIPOS>BOND
     1    15    16    1
     2    16    14    1
     3     5    14    1
     4     6    12   ar
     5     7     3    1
     6     7    13   ar
     7     1    17    1
     8    18    19   ar
     9    19    24    1
    10    23    24    1
    11    20    21   ar
    12    21    26    1
    13    25    26    1
    14    22    17   ar
    15     8    13   ar
    16     8     6   ar
    17     9    10   ar
    18    11     5   ar
    19     3     1   am
    20     5     6   ar
    21     7    12   ar
    22     1     2    2
    23    17    18   ar
    24    19    20   ar
    25    21    22   ar
    26     8     9   ar
    27    10    11   ar
    28     3     4    1
@<TRIPOS>MOLECULE
MolPort-002-117-240 1194452 CSSS00160388997 MCULE-4255255336 PubChem-1354541 ZINC000001194452
 26 28 0 0 0
SMALL
GASTEIGER

@<TRIPOS>ATOM
      1 C          10.4457   41.2169   10.5948 C.2     1  UNL1        0.2511
      2 O          10.7030   41.2697   11.8280 O.2     1  UNL1       -0.2698
      3 N          11.4250   40.7339    9.6641 N.am    1  UNL1       -0.2606
      4 H          11.1630   40.7177    8.7152 H       1  UNL1        0.1571
      5 C          16.2747   40.6087    9.5045 C.ar    1  UNL1        0.1566
      6 C          14.9794   40.2403    9.8812 C.ar    1  UNL1        0.1230
      7 C          12.7454   40.2727    9.9751 C.ar    1  UNL1        0.1659
      8 C          14.7765   39.1891   10.7634 C.ar    1  UNL1        0.0527
      9 C          15.8300   38.4621   11.3094 C.ar    1  UNL1        0.0083
     10 C          17.1352   38.8215   10.9421 C.ar    1  UNL1        0.0037
     11 C          17.3576   39.8857   10.0481 C.ar    1  UNL1        0.0385
     12 N          13.8483   40.8480    9.4386 N.ar    1  UNL1       -0.2208
     13 S          13.1312   38.9891   11.0181 S.2     1  UNL1       -0.0513
     14 O          16.4667   41.6741    8.6160 O.3     1  UNL1       -0.4739
     15 C          17.7372   43.6439    8.0353 C.3     1  UNL1        0.0512
     16 C          17.7524   42.1371    8.2160 C.3     1  UNL1        0.2056
     17 C           9.1271   41.6555   10.1047 C.ar    1  UNL1        0.0597
     18 C           7.9865   41.5067   10.9066 C.ar    1  UNL1        0.0416
     19 C           6.7325   41.9205   10.4484 C.ar    1  UNL1        0.1419
     20 C           6.6201   42.4900    9.1708 C.ar    1  UNL1        0.0738
     21 C           7.7529   42.6450    8.3574 C.ar    1  UNL1        0.1419
     22 C           8.9996   42.2261    8.8308 C.ar    1  UNL1        0.0416
     23 C           4.7451   40.6401   11.1750 C.3     1  UNL1        0.2525
     24 O           5.6203   41.7549   11.2780 O.3     1  UNL1       -0.4713
     25 C           6.5595   42.9936    6.2191 C.3     1  UNL1        0.2525
     26 O           7.6683   43.2091    7.0815 O.3     1  UNL1       -0.4713
@<TRIPOS>BOND
     1    15    16    1
     2    16    14    1
     3     5    14    1
     4     6    12   ar
     5     7     3    1
     6     7    13   ar
     7     1    17    1
     8    18    19   ar
     9    19    24    1
    10    23    24    1
    11    20    21   ar
    12    21    26    1
    13    25    26    1
    14    22    17   ar
    15     8    13   ar
    16     8     6   ar
    17     9    10   ar
    18    11     5   ar
    19     3     1   am
    20     5     6   ar
    21     7    12   ar
    22     1     2    2
    23    17    18   ar
    24    19    20   ar
    25    21    22   ar
    26     8     9   ar
    27    10    11   ar
    28     3     4    1
@<TRIPOS>MOLECULE
MolPort-002-117-240 1194452 CSSS00160388997 MCULE-4255255336 PubChem-1354541 ZINC000001194452
 26 28 0 0 0
SMALL
GASTEIGER

@<TRIPOS>ATOM
      1 C          10.7156   41.4277    9.4726 C.2     1  UNL1        0.2511
      2 O          11.0411   42.1764   10.4334 O.2     1  UNL1       -0.2698
      3 N          11.6078   40.4040    9.0092 N.am    1  UNL1       -0.2606
      4 H          11.2954   39.8531    8.2554 H       1  UNL1        0.1571
      5 C          16.4422   40.6249    9.3857 C.ar    1  UNL1        0.1566
      6 C          15.1351   40.2252    9.6811 C.ar    1  UNL1        0.1230
      7 C          12.9072   40.1019    9.5319 C.ar    1  UNL1        0.1659
      8 C          14.8914   39.3197   10.7034 C.ar    1  UNL1        0.0527
      9 C          15.9140   38.7741   11.4735 C.ar    1  UNL1        0.0083
     10 C          17.2303   39.1672   11.1899 C.ar    1  UNL1        0.0037
     11 C          17.4940   40.0851   10.1559 C.ar    1  UNL1        0.0385
     12 N          14.0303   40.6644    9.0244 N.ar    1  UNL1       -0.2208
     13 S          13.2418   39.0389   10.8135 S.2     1  UNL1       -0.0513
     14 O          16.6750   41.5425    8.3536 O.3     1  UNL1       -0.4739
     15 C          17.4936   43.6806    7.5859 C.3     1  UNL1        0.0512
     16 C          17.8240   42.3814    8.2972 C.3     1  UNL1        0.2056
     17 C           9.4069   41.6056    8.8191 C.ar    1  UNL1        0.0597
     18 C           8.9199   40.6365    7.9305 C.ar    1  UNL1        0.0416
     19 C           7.6794   40.7984    7.3071 C.ar    1  UNL1        0.1419
     20 C           6.9179   41.9456    7.5773 C.ar    1  UNL1        0.0738
     21 C           7.3927   42.9237    8.4643 C.ar    1  UNL1        0.1419
     22 C           8.6352   42.7463    9.0795 C.ar    1  UNL1        0.0416
     23 C           5.8684   39.6919    6.0370 C.3     1  UNL1        0.2525
     24 O           7.2295   39.8096    6.4280 O.3     1  UNL1       -0.4713
     25 C           5.5235   44.4714    7.9863 C.3     1  UNL1        0.2525
     26 O           6.6542   44.0751    8.7506 O.3     1  UNL1       -0.4713
@<TRIPOS>BOND
     1    15    16    1
     2    16    14    1
     3     5    14    1
     4     6    12   ar
     5     7     3    1
     6     7    13   ar
     7     1    17    1
     8    18    19   ar
     9    19    24    1
    10    23    24    1
    11    20    21   ar
    12    21    26    1
    13    25    26    1
    14    22    17   ar
    15     8    13   ar
    16     8     6   ar
    17     9    10   ar
    18    11     5   ar
    19     3     1   am
    20     5     6   ar
    21     7    12   ar
    22     1     2    2
    23    17    18   ar
    24    19    20   ar
    25    21    22   ar
    26     8     9   ar
    27    10    11   ar
    28     3     4    1
@<TRIPOS>MOLECULE
MolPort-002-117-240 1194452 CSSS00160388997 MCULE-4255255336 PubChem-1354541 ZINC000001194452
 26 28 0 0 0
SMALL
GASTEIGER

@<TRIPOS>ATOM
      1 C           8.0873   41.8000    8.5562 C.2     1  UNL1        0.2511
      2 O           8.4406   41.5339    7.3754 O.2     1  UNL1       -0.2698
      3 N           9.0421   41.7789    9.6269 N.am    1  UNL1       -0.2606
      4 H           8.7035   41.9955   10.5256 H       1  UNL1        0.1571
      5 C          13.4997   41.8260    7.7063 C.ar    1  UNL1        0.1566
      6 C          12.4811   41.5152    8.6124 C.ar    1  UNL1        0.1230
      7 C          10.4382   41.4746    9.5213 C.ar    1  UNL1        0.1659
      8 C          12.7455   40.7285    9.7240 C.ar    1  UNL1        0.0527
      9 C          14.0128   40.2191    9.9905 C.ar    1  UNL1        0.0083
     10 C          15.0451   40.5241    9.0912 C.ar    1  UNL1        0.0037
     11 C          14.7928   41.3211    7.9587 C.ar    1  UNL1        0.0385
     12 N          11.1943   41.9338    8.4953 N.ar    1  UNL1       -0.2208
     13 S          11.3366   40.5322   10.6119 S.2     1  UNL1       -0.0513
     14 O          13.2210   42.6242    6.5897 O.3     1  UNL1       -0.4739
     15 C          15.3203   43.7511    6.9826 C.3     1  UNL1        0.0512
     16 C          14.0117   43.7471    6.2139 C.3     1  UNL1        0.2056
     17 C           6.6807   42.1357    8.8393 C.ar    1  UNL1        0.0597
     18 C           5.8313   41.1910    9.4325 C.ar    1  UNL1        0.0416
     19 C           4.4960   41.5023    9.7041 C.ar    1  UNL1        0.1419
     20 C           4.0059   42.7758    9.3769 C.ar    1  UNL1        0.0738
     21 C           4.8446   43.7313    8.7828 C.ar    1  UNL1        0.1419
     22 C           6.1774   43.4038    8.5181 C.ar    1  UNL1        0.0416
     23 C           3.8880   40.0629   11.6213 C.3     1  UNL1        0.2525
     24 O           3.6819   40.5330   10.2962 O.3     1  UNL1       -0.4713
     25 C           3.2926   45.2185    7.5592 C.3     1  UNL1        0.2525
     26 O           4.3816   45.0065    8.4473 O.3     1  UNL1       -0.4713
@<TRIPOS>BOND
     1    15    16    1
     2    16    14    1
     3     5    14    1
     4     6    12   ar
     5     7     3    1
     6     7    13   ar
     7     1    17    1
     8    18    19   ar
     9    19    24    1
    10    23    24    1
    11    20    21   ar
    12    21    26    1
    13    25    26    1
    14    22    17   ar
    15     8    13   ar
    16     8     6   ar
    17     9    10   ar
    18    11     5   ar
    19     3     1   am
    20     5     6   ar
    21     7    12   ar
    22     1     2    2
    23    17    18   ar
    24    19    20   ar
    25    21    22   ar
    26     8     9   ar
    27    10    11   ar
    28     3     4    1
@<TRIPOS>MOLECULE
MolPort-002-117-240 1194452 CSSS00160388997 MCULE-4255255336 PubChem-1354541 ZINC000001194452
 26 28 0 0 0
SMALL
GASTEIGER

@<TRIPOS>ATOM
      1 C           7.1400   41.4694   10.9915 C.2     1  UNL1        0.2511
      2 O           7.5028   41.1614   12.1591 O.2     1  UNL1       -0.2698
      3 N           8.0620   41.3901    9.8950 N.am    1  UNL1       -0.2606
      4 H           7.7177   41.6443    9.0085 H       1  UNL1        0.1571
      5 C          12.3506   39.8378    8.2339 C.ar    1  UNL1        0.1566
      6 C          11.3967   40.2634    9.1636 C.ar    1  UNL1        0.1230
      7 C           9.4329   40.9786    9.9591 C.ar    1  UNL1        0.1659
      8 C          11.7197   40.3549   10.5096 C.ar    1  UNL1        0.0527
      9 C          12.9843   40.0359   10.9947 C.ar    1  UNL1        0.0083
     10 C          13.9522   39.6092   10.0734 C.ar    1  UNL1        0.0037
     11 C          13.6401   39.5111    8.7044 C.ar    1  UNL1        0.0385
     12 N          10.1212   40.6105    8.8518 N.ar    1  UNL1       -0.2208
     13 S          10.3798   40.8873   11.3660 S.2     1  UNL1       -0.0513
     14 O          12.0135   39.7530    6.8772 O.3     1  UNL1       -0.4739
     15 C          10.6296   40.6822    5.1300 C.3     1  UNL1        0.0512
     16 C          11.8208   40.8932    6.0463 C.3     1  UNL1        0.2056
     17 C           5.7563   41.9151   10.7506 C.ar    1  UNL1        0.0597
     18 C           5.4528   42.7207    9.6438 C.ar    1  UNL1        0.0416
     19 C           4.1427   43.1472    9.4088 C.ar    1  UNL1        0.1419
     20 C           3.1242   42.7619   10.2940 C.ar    1  UNL1        0.0738
     21 C           3.4133   41.9560   11.4057 C.ar    1  UNL1        0.1419
     22 C           4.7288   41.5380   11.6261 C.ar    1  UNL1        0.0416
     23 C           4.9118   44.5619    7.5315 C.3     1  UNL1        0.2525
     24 O           3.8814   43.9491    8.2946 O.3     1  UNL1       -0.4713
     25 C           1.4147   42.4453   12.7783 C.3     1  UNL1        0.2525
     26 O           2.4178   41.5582   12.3022 O.3     1  UNL1       -0.4713
@<TRIPOS>BOND
     1    15    16    1
     2    16    14    1
     3     5    14    1
     4     6    12   ar
     5     7     3    1
     6     7    13   ar
     7     1    17    1
     8    18    19   ar
     9    19    24    1
    10    23    24    1
    11    20    21   ar
    12    21    26    1
    13    25    26    1
    14    22    17   ar
    15     8    13   ar
    16     8     6   ar
    17     9    10   ar
    18    11     5   ar
    19     3     1   am
    20     5     6   ar
    21     7    12   ar
    22     1     2    2
    23    17    18   ar
    24    19    20   ar
    25    21    22   ar
    26     8     9   ar
    27    10    11   ar
    28     3     4    1
@<TRIPOS>MOLECULE
MolPort-002-117-240 1194452 CSSS00160388997 MCULE-4255255336 PubChem-1354541 ZINC000001194452
 26 28 0 0 0
SMALL
GASTEIGER

@<TRIPOS>ATOM
      1 C          13.0556   41.1803    7.8340 C.2     1  UNL1        0.2511
      2 O          12.8371   39.9529    7.6457 O.2     1  UNL1       -0.2698
      3 N          11.9661   42.1007    7.9908 N.am    1  UNL1       -0.2606
      4 H          12.2027   43.0455    8.1347 H       1  UNL1        0.1571
      5 C           7.7894   40.4610    6.1394 C.ar    1  UNL1        0.1566
      6 C           8.6603   41.0214    7.0791 C.ar    1  UNL1        0.1230
      7 C          10.5690   41.7848    7.9594 C.ar    1  UNL1        0.1659
      8 C           8.1920   41.4134    8.3247 C.ar    1  UNL1        0.0527
      9 C           6.8588   41.2711    8.6969 C.ar    1  UNL1        0.0083
     10 C           5.9738   40.7087    7.7651 C.ar    1  UNL1        0.0037
     11 C           6.4335   40.3059    6.4972 C.ar    1  UNL1        0.0385
     12 N           9.9866   41.2270    6.8709 N.ar    1  UNL1       -0.2208
     13 S           9.4615   42.0442    9.2206 S.2     1  UNL1       -0.0513
     14 O           8.2750   40.0658    4.8866 O.3     1  UNL1       -0.4739
     15 C           9.5063   38.8079    3.2334 C.3     1  UNL1        0.0512
     16 C           9.1429   38.9526    4.6997 C.3     1  UNL1        0.2056
     17 C          14.4426   41.6744    7.8935 C.ar    1  UNL1        0.0597
     18 C          15.3977   41.0148    8.6800 C.ar    1  UNL1        0.0416
     19 C          16.7152   41.4776    8.7412 C.ar    1  UNL1        0.1419
     20 C          17.0798   42.6155    8.0054 C.ar    1  UNL1        0.0738
     21 C          16.1345   43.2857    7.2140 C.ar    1  UNL1        0.1419
     22 C          14.8212   42.8096    7.1638 C.ar    1  UNL1        0.0416
     23 C          17.2830   39.6610   10.3207 C.3     1  UNL1        0.2525
     24 O          17.6371   40.7921    9.5367 O.3     1  UNL1       -0.4713
     25 C          15.4973   45.2534    5.8576 C.3     1  UNL1        0.2525
     26 O          16.4716   44.4208    6.4718 O.3     1  UNL1       -0.4713
@<TRIPOS>BOND
     1    15    16    1
     2    16    14    1
     3     5    14    1
     4     6    12   ar
     5     7     3    1
     6     7    13   ar
     7     1    17    1
     8    18    19   ar
     9    19    24    1
    10    23    24    1
    11    20    21   ar
    12    21    26    1
    13    25    26    1
    14    22    17   ar
    15     8    13   ar
    16     8     6   ar
    17     9    10   ar
    18    11     5   ar
    19     3     1   am
    20     5     6   ar
    21     7    12   ar
    22     1     2    2
    23    17    18   ar
    24    19    20   ar
    25    21    22   ar
    26     8     9   ar
    27    10    11   ar
    28     3     4    1
@<TRIPOS>MOLECULE
MolPort-002-117-240 1194452 CSSS00160388997 MCULE-4255255336 PubChem-1354541 ZINC000001194452
 26 28 0 0 0
SMALL
GASTEIGER

@<TRIPOS>ATOM
      1 C          10.6153   42.2148    8.8028 C.2     1  UNL1        0.2511
      2 O          10.9502   42.8956    9.8098 O.2     1  UNL1       -0.2698
      3 N          11.5335   41.2838    8.2120 N.am    1  UNL1       -0.2606
      4 H          11.2120   40.7830    7.4278 H       1  UNL1        0.1571
      5 C          16.3703   41.6743    8.3306 C.ar    1  UNL1        0.1566
      6 C          15.0975   41.2115    8.6786 C.ar    1  UNL1        0.1230
      7 C          12.8706   41.0090    8.6472 C.ar    1  UNL1        0.1659
      8 C          14.9453   40.2522    9.6691 C.ar    1  UNL1        0.0527
      9 C          16.0291   39.7125   10.3550 C.ar    1  UNL1        0.0083
     10 C          17.3120   40.1686   10.0179 C.ar    1  UNL1        0.0037
     11 C          17.4831   41.1415    9.0152 C.ar    1  UNL1        0.0385
     12 N          13.9419   41.6367    8.1054 N.ar    1  UNL1       -0.2208
     13 S          13.3158   39.9033    9.8569 S.2     1  UNL1       -0.0513
     14 O          16.5106   42.6456    7.3315 O.3     1  UNL1       -0.4739
     15 C          15.9645   44.8038    6.3959 C.3     1  UNL1        0.0512
     16 C          16.5037   44.0449    7.5945 C.3     1  UNL1        0.2056
     17 C           9.2687   42.3766    8.2270 C.ar    1  UNL1        0.0597
     18 C           8.4322   43.4157    8.6593 C.ar    1  UNL1        0.0416
     19 C           7.1537   43.5754    8.1177 C.ar    1  UNL1        0.1419
     20 C           6.7078   42.6829    7.1309 C.ar    1  UNL1        0.0738
     21 C           7.5340   41.6384    6.6887 C.ar    1  UNL1        0.1419
     22 C           8.8099   41.4928    7.2406 C.ar    1  UNL1        0.0416
     23 C           5.0508   44.8762    8.0600 C.3     1  UNL1        0.2525
     24 O           6.3508   44.6236    8.5754 O.3     1  UNL1       -0.4713
     25 C           6.4194   39.5354    6.0158 C.3     1  UNL1        0.2525
     26 O           7.1142   40.7362    5.7075 O.3     1  UNL1       -0.4713
@<TRIPOS>BOND
     1    15    16    1
     2    16    14    1
     3     5    14    1
     4     6    12   ar
     5     7     3    1
     6     7    13   ar
     7     1    17    1
     8    18    19   ar
     9    19    24    1
    10    23    24    1
    11    20    21   ar
    12    21    26    1
    13    25    26    1
    14    22    17   ar
    15     8    13   ar
    16     8     6   ar
    17     9    10   ar
    18    11     5   ar
    19     3     1   am
    20     5     6   ar
    21     7    12   ar
    22     1     2    2
    23    17    18   ar
    24    19    20   ar
    25    21    22   ar
    26     8     9   ar
    27    10    11   ar
    28     3     4    1
