@<TRIPOS>MOLECULE
MolPort-016-720-965 19662125 MCULE-8541281991 PubChem-46977982 ZINC000019662125
 27 30 0 0 0
SMALL
GASTEIGER

@<TRIPOS>ATOM
      1 C           8.1636   42.4305   15.4299 C.2     1  UNL1        0.2509
      2 O           7.8799   43.6579   15.4849 O.2     1  UNL1       -0.2698
      3 N           7.7467   41.5368   16.4720 N.am    1  UNL1       -0.2606
      4 H           7.9995   40.5908   16.3705 H       1  UNL1        0.1571
      5 C           6.4754   44.1483   20.3612 C.ar    1  UNL1        0.1566
      6 C           5.5374   44.1346   21.4151 C.ar    1  UNL1        0.0385
      7 C           4.5932   43.0963   21.5237 C.ar    1  UNL1        0.0037
      8 C           4.5683   42.0561   20.5831 C.ar    1  UNL1        0.0083
      9 C           5.5009   42.0896   19.5507 C.ar    1  UNL1        0.0527
     10 C           7.0000   41.8812   17.6454 C.ar    1  UNL1        0.1659
     11 C           6.4375   43.1057   19.4300 C.ar    1  UNL1        0.1230
     12 S           5.7054   40.9955   18.2964 S.2     1  UNL1       -0.0513
     13 N           7.2764   42.9933   18.3677 N.ar    1  UNL1       -0.2208
     14 O           7.4234   45.1704   20.2264 O.3     1  UNL1       -0.4739
     15 C           5.9174   46.9119   20.9548 C.3     1  UNL1        0.0512
     16 C           7.3479   46.4051   20.9310 C.3     1  UNL1        0.2056
     17 C           8.9304   41.9092   14.2846 C.ar    1  UNL1        0.0538
     18 C           8.4757   42.1122   12.9739 C.ar    1  UNL1        0.0061
     19 C           9.2035   41.6174   11.8882 C.ar    1  UNL1        0.0194
     20 C          10.3968   40.9122   12.0970 C.ar    1  UNL1        0.0863
     21 C          10.8516   40.7089   13.4081 C.ar    1  UNL1        0.0194
     22 C          10.1237   41.2039   14.4933 C.ar    1  UNL1        0.0061
     23 C          11.3179   39.1197   10.6282 C.ar    1  UNL1        0.2258
     24 N          11.1406   40.4061   10.9806 N.ar    1  UNL1       -0.1886
     25 N          12.0815   39.0805    9.5177 N.ar    1  UNL1       -0.1045
     26 N          12.3546   40.3422    9.2152 N.ar    1  UNL1       -0.0222
     27 N          11.7868   41.1465   10.0983 N.ar    1  UNL1       -0.0385
@<TRIPOS>BOND
     1    15    16    1
     2    16    14    1
     3     5    14    1
     4     6     7   ar
     5     8     9   ar
     6     9    12   ar
     7    10    12   ar
     8    10     3    1
     9     1    17    1
    10    18    19   ar
    11    20    24    1
    12    20    21   ar
    13    22    17   ar
    14    11    13   ar
    15    11     5   ar
    16     3     1   am
    17    24    23   ar
    18    24    27   ar
    19    25    26   ar
    20     5     6   ar
    21     7     8   ar
    22    10    13   ar
    23     1     2    2
    24    17    18   ar
    25    19    20   ar
    26    23    25   ar
    27    21    22   ar
    28    11     9   ar
    29    26    27   ar
    30     3     4    1
@<TRIPOS>MOLECULE
MolPort-016-720-965 19662125 MCULE-8541281991 PubChem-46977982 ZINC000019662125
 27 30 0 0 0
SMALL
GASTEIGER

@<TRIPOS>ATOM
      1 C          12.7639   37.4037    3.8238 C.2     1  UNL1        0.2509
      2 O          13.0755   37.5948    2.6170 O.2     1  UNL1       -0.2698
      3 N          13.5141   36.4896    4.6361 N.am    1  UNL1       -0.2606
      4 H          13.2205   36.3846    5.5699 H       1  UNL1        0.1571
      5 C          17.9741   35.6456    2.9164 C.ar    1  UNL1        0.1566
      6 C          18.8380   34.5675    2.6298 C.ar    1  UNL1        0.0385
      7 C          18.4295   33.2394    2.8550 C.ar    1  UNL1        0.0037
      8 C          17.1541   32.9652    3.3704 C.ar    1  UNL1        0.0083
      9 C          16.3185   34.0429    3.6476 C.ar    1  UNL1        0.0527
     10 C          14.6471   35.7139    4.2266 C.ar    1  UNL1        0.1659
     11 C          16.7065   35.3570    3.4314 C.ar    1  UNL1        0.1230
     12 S          14.7591   34.0198    4.2640 S.2     1  UNL1       -0.0513
     13 N          15.7765   36.2932    3.7532 N.ar    1  UNL1       -0.2208
     14 O          18.3556   36.9767    2.7059 O.3     1  UNL1       -0.4739
     15 C          19.6374   37.4019    4.7078 C.3     1  UNL1        0.0512
     16 C          19.5726   37.5287    3.1967 C.3     1  UNL1        0.2056
     17 C          11.6186   38.1260    4.4052 C.ar    1  UNL1        0.0538
     18 C          11.7647   38.8447    5.6002 C.ar    1  UNL1        0.0061
     19 C          10.6780   39.5295    6.1510 C.ar    1  UNL1        0.0194
     20 C           9.4291   39.5058    5.5150 C.ar    1  UNL1        0.0863
     21 C           9.2828   38.7869    4.3197 C.ar    1  UNL1        0.0194
     22 C          10.3696   38.1024    3.7694 C.ar    1  UNL1        0.0061
     23 C           7.8795   40.1634    7.3550 C.ar    1  UNL1        0.2258
     24 N           8.3165   40.2096    6.0833 N.ar    1  UNL1       -0.1886
     25 N           6.8083   40.9740    7.4701 N.ar    1  UNL1       -0.1045
     26 N           6.6134   41.4978    6.2677 N.ar    1  UNL1       -0.0222
     27 N           7.5242   41.0373    5.4266 N.ar    1  UNL1       -0.0385
@<TRIPOS>BOND
     1    15    16    1
     2    16    14    1
     3     5    14    1
     4     6     7   ar
     5     8     9   ar
     6     9    12   ar
     7    10    12   ar
     8    10     3    1
     9     1    17    1
    10    18    19   ar
    11    20    24    1
    12    20    21   ar
    13    22    17   ar
    14    11    13   ar
    15    11     5   ar
    16     3     1   am
    17    24    23   ar
    18    24    27   ar
    19    25    26   ar
    20     5     6   ar
    21     7     8   ar
    22    10    13   ar
    23     1     2    2
    24    17    18   ar
    25    19    20   ar
    26    23    25   ar
    27    21    22   ar
    28    11     9   ar
    29    26    27   ar
    30     3     4    1
@<TRIPOS>MOLECULE
MolPort-016-720-965 19662125 MCULE-8541281991 PubChem-46977982 ZINC000019662125
 27 30 0 0 0
SMALL
GASTEIGER

@<TRIPOS>ATOM
      1 C          11.7813   32.4974   14.8782 C.2     1  UNL1        0.2509
      2 O          11.3532   32.8062   13.7331 O.2     1  UNL1       -0.2698
      3 N          10.8698   32.1430   15.9279 N.am    1  UNL1       -0.2606
      4 H          11.2666   31.9121   16.7988 H       1  UNL1        0.1571
      5 C           6.4711   32.9728   14.0507 C.ar    1  UNL1        0.1566
      6 C           5.1119   32.7032   14.3167 C.ar    1  UNL1        0.0385
      7 C           4.7343   31.9696   15.4571 C.ar    1  UNL1        0.0037
      8 C           5.7054   31.4921   16.3495 C.ar    1  UNL1        0.0083
      9 C           7.0400   31.7675   16.0677 C.ar    1  UNL1        0.0527
     10 C           9.4408   32.0908   15.8378 C.ar    1  UNL1        0.1659
     11 C           7.4281   32.4890   14.9482 C.ar    1  UNL1        0.1230
     12 S           8.4012   31.3287   16.9434 S.2     1  UNL1       -0.0513
     13 N           8.7674   32.6719   14.8159 N.ar    1  UNL1       -0.2208
     14 O           6.8756   33.6968   12.9221 O.3     1  UNL1       -0.4739
     15 C           6.8573   35.6748   14.3073 C.3     1  UNL1        0.0512
     16 C           7.2238   35.0767   12.9614 C.3     1  UNL1        0.2056
     17 C          13.2313   32.5007   15.1407 C.ar    1  UNL1        0.0538
     18 C          13.9744   33.6823   15.0083 C.ar    1  UNL1        0.0061
     19 C          15.3496   33.6845   15.2575 C.ar    1  UNL1        0.0194
     20 C          16.0022   32.5053   15.6427 C.ar    1  UNL1        0.0863
     21 C          15.2590   31.3233   15.7751 C.ar    1  UNL1        0.0194
     22 C          13.8840   31.3215   15.5260 C.ar    1  UNL1        0.0061
     23 C          18.0540   32.0305   16.9783 C.ar    1  UNL1        0.2258
     24 N          17.4132   32.5116   15.8974 N.ar    1  UNL1       -0.1886
     25 N          19.3770   32.2359   16.8193 N.ar    1  UNL1       -0.1045
     26 N          19.5167   32.8375   15.6460 N.ar    1  UNL1       -0.0222
     27 N          18.3306   33.0057   15.0859 N.ar    1  UNL1       -0.0385
@<TRIPOS>BOND
     1    15    16    1
     2    16    14    1
     3     5    14    1
     4     6     7   ar
     5     8     9   ar
     6     9    12   ar
     7    10    12   ar
     8    10     3    1
     9     1    17    1
    10    18    19   ar
    11    20    24    1
    12    20    21   ar
    13    22    17   ar
    14    11    13   ar
    15    11     5   ar
    16     3     1   am
    17    24    23   ar
    18    24    27   ar
    19    25    26   ar
    20     5     6   ar
    21     7     8   ar
    22    10    13   ar
    23     1     2    2
    24    17    18   ar
    25    19    20   ar
    26    23    25   ar
    27    21    22   ar
    28    11     9   ar
    29    26    27   ar
    30     3     4    1
@<TRIPOS>MOLECULE
MolPort-016-720-965 19662125 MCULE-8541281991 PubChem-46977982 ZINC000019662125
 27 30 0 0 0
SMALL
GASTEIGER

@<TRIPOS>ATOM
      1 C          16.8596   32.7638    5.4340 C.2     1  UNL1        0.2509
      2 O          15.9266   33.2528    6.1269 O.2     1  UNL1       -0.2698
      3 N          18.1167   32.4246    6.0366 N.am    1  UNL1       -0.2606
      4 H          18.8044   32.0468    5.4420 H       1  UNL1        0.1571
      5 C          19.2328   34.7774   10.1329 C.ar    1  UNL1        0.1566
      6 C          19.5656   34.5115   11.4780 C.ar    1  UNL1        0.0385
      7 C          19.6464   33.1880   11.9504 C.ar    1  UNL1        0.0037
      8 C          19.3955   32.1089   11.0901 C.ar    1  UNL1        0.0083
      9 C          19.0673   32.3933    9.7679 C.ar    1  UNL1        0.0527
     10 C          18.4730   32.5797    7.4157 C.ar    1  UNL1        0.1659
     11 C          18.9836   33.6919    9.2874 C.ar    1  UNL1        0.1230
     12 S          18.7187   31.3198    8.5277 S.2     1  UNL1       -0.0513
     13 N          18.6521   33.8006    7.9747 N.ar    1  UNL1       -0.2208
     14 O          19.1416   36.0840    9.6368 O.3     1  UNL1       -0.4739
     15 C          17.8698   37.9578   10.4749 C.3     1  UNL1        0.0512
     16 C          17.9109   36.7880    9.5088 C.3     1  UNL1        0.2056
     17 C          16.6572   32.5387    3.9918 C.ar    1  UNL1        0.0538
     18 C          15.5236   31.8532    3.5322 C.ar    1  UNL1        0.0061
     19 C          15.3324   31.6401    2.1643 C.ar    1  UNL1        0.0194
     20 C          16.2716   32.1091    1.2356 C.ar    1  UNL1        0.0863
     21 C          17.4056   32.7947    1.6952 C.ar    1  UNL1        0.0194
     22 C          17.5964   33.0076    3.0630 C.ar    1  UNL1        0.0061
     23 C          16.9631   32.0621   -1.1599 C.ar    1  UNL1        0.2258
     24 N          16.0719   31.8884   -0.1670 N.ar    1  UNL1       -0.1886
     25 N          16.3712   31.7423   -2.3284 N.ar    1  UNL1       -0.1045
     26 N          15.1321   31.3803   -2.0252 N.ar    1  UNL1       -0.0222
     27 N          14.9481   31.4676   -0.7185 N.ar    1  UNL1       -0.0385
@<TRIPOS>BOND
     1    15    16    1
     2    16    14    1
     3     5    14    1
     4     6     7   ar
     5     8     9   ar
     6     9    12   ar
     7    10    12   ar
     8    10     3    1
     9     1    17    1
    10    18    19   ar
    11    20    24    1
    12    20    21   ar
    13    22    17   ar
    14    11    13   ar
    15    11     5   ar
    16     3     1   am
    17    24    23   ar
    18    24    27   ar
    19    25    26   ar
    20     5     6   ar
    21     7     8   ar
    22    10    13   ar
    23     1     2    2
    24    17    18   ar
    25    19    20   ar
    26    23    25   ar
    27    21    22   ar
    28    11     9   ar
    29    26    27   ar
    30     3     4    1
@<TRIPOS>MOLECULE
MolPort-016-720-965 19662125 MCULE-8541281991 PubChem-46977982 ZINC000019662125
 27 30 0 0 0
SMALL
GASTEIGER

@<TRIPOS>ATOM
      1 C          10.4973   42.7555    9.2823 C.2     1  UNL1        0.2509
      2 O          11.0399   43.5375   10.1094 O.2     1  UNL1       -0.2698
      3 N          11.2902   42.0418    8.3230 N.am    1  UNL1       -0.2606
      4 H          10.8070   41.4470    7.7049 H       1  UNL1        0.1571
      5 C          15.9354   40.9186    9.1728 C.ar    1  UNL1        0.1566
      6 C          17.2311   41.2706    8.7395 C.ar    1  UNL1        0.0385
      7 C          17.4155   42.2507    7.7461 C.ar    1  UNL1        0.0037
      8 C          16.3114   42.8943    7.1681 C.ar    1  UNL1        0.0083
      9 C          15.0423   42.5311    7.6086 C.ar    1  UNL1        0.0527
     10 C          12.7137   42.1067    8.1729 C.ar    1  UNL1        0.1659
     11 C          14.8442   41.5673    8.5864 C.ar    1  UNL1        0.1230
     12 S          13.5563   43.1225    7.1043 S.2     1  UNL1       -0.0513
     13 N          13.5457   41.3272    8.9046 N.ar    1  UNL1       -0.2208
     14 O          15.7223   39.9447   10.1564 O.3     1  UNL1       -0.4739
     15 C          14.5378   38.7426   11.8837 C.3     1  UNL1        0.0512
     16 C          14.4285   39.5613   10.6104 C.3     1  UNL1        0.2056
     17 C           9.0352   42.5730    9.3012 C.ar    1  UNL1        0.0538
     18 C           8.2230   43.2499    8.3802 C.ar    1  UNL1        0.0061
     19 C           6.8364   43.0762    8.3987 C.ar    1  UNL1        0.0194
     20 C           6.2412   42.2234    9.3385 C.ar    1  UNL1        0.0863
     21 C           7.0535   41.5464   10.2600 C.ar    1  UNL1        0.0194
     22 C           8.4399   41.7202   10.2410 C.ar    1  UNL1        0.0061
     23 C           3.8739   42.9831    9.1443 C.ar    1  UNL1        0.2258
     24 N           4.8182   42.0480    9.3545 N.ar    1  UNL1       -0.1886
     25 N           2.6625   42.4004    9.2489 N.ar    1  UNL1       -0.1045
     26 N           2.8918   41.1230    9.5205 N.ar    1  UNL1       -0.0222
     27 N           4.1949   40.9067    9.5850 N.ar    1  UNL1       -0.0385
@<TRIPOS>BOND
     1    15    16    1
     2    16    14    1
     3     5    14    1
     4     6     7   ar
     5     8     9   ar
     6     9    12   ar
     7    10    12   ar
     8    10     3    1
     9     1    17    1
    10    18    19   ar
    11    20    24    1
    12    20    21   ar
    13    22    17   ar
    14    11    13   ar
    15    11     5   ar
    16     3     1   am
    17    24    23   ar
    18    24    27   ar
    19    25    26   ar
    20     5     6   ar
    21     7     8   ar
    22    10    13   ar
    23     1     2    2
    24    17    18   ar
    25    19    20   ar
    26    23    25   ar
    27    21    22   ar
    28    11     9   ar
    29    26    27   ar
    30     3     4    1
@<TRIPOS>MOLECULE
MolPort-016-720-965 19662125 MCULE-8541281991 PubChem-46977982 ZINC000019662125
 27 30 0 0 0
SMALL
GASTEIGER

@<TRIPOS>ATOM
      1 C          10.9633   41.7775    9.5095 C.2     1  UNL1        0.2509
      2 O          11.1366   42.8969    8.9556 O.2     1  UNL1       -0.2698
      3 N           9.6401   41.2904    9.7744 N.am    1  UNL1       -0.2606
      4 H           9.5719   40.4097   10.2090 H       1  UNL1        0.1571
      5 C           4.8344   41.8439    9.3733 C.ar    1  UNL1        0.1566
      6 C           3.8854   42.8064    8.9686 C.ar    1  UNL1        0.0385
      7 C           4.2964   44.0683    8.4997 C.ar    1  UNL1        0.0037
      8 C           5.6595   44.3912    8.4279 C.ar    1  UNL1        0.0083
      9 C           6.5787   43.4283    8.8334 C.ar    1  UNL1        0.0527
     10 C           8.4077   41.9554    9.4708 C.ar    1  UNL1        0.1659
     11 C           6.1896   42.1805    9.2978 C.ar    1  UNL1        0.1230
     12 S           8.2523   43.5320    8.8589 S.2     1  UNL1       -0.0513
     13 N           7.2074   41.3550    9.6548 N.ar    1  UNL1       -0.2208
     14 O           4.4540   40.5821    9.8473 O.3     1  UNL1       -0.4739
     15 C           3.4753   41.6309   11.7899 C.3     1  UNL1        0.0512
     16 C           4.0100   40.3482   11.1796 C.3     1  UNL1        0.2056
     17 C          12.1307   40.9619    9.8883 C.ar    1  UNL1        0.0538
     18 C          12.1136   40.2010   11.0659 C.ar    1  UNL1        0.0061
     19 C          13.2212   39.4278   11.4244 C.ar    1  UNL1        0.0194
     20 C          14.3624   39.4040   10.6109 C.ar    1  UNL1        0.0863
     21 C          14.3797   40.1652    9.4330 C.ar    1  UNL1        0.0194
     22 C          13.2720   40.9381    9.0749 C.ar    1  UNL1        0.0061
     23 C          16.7599   38.7221   10.5323 C.ar    1  UNL1        0.2258
     24 N          15.4968   38.6095   10.9822 N.ar    1  UNL1       -0.1886
     25 N          17.5153   37.7821   11.1353 N.ar    1  UNL1       -0.1045
     26 N          16.6990   37.1157   11.9400 N.ar    1  UNL1       -0.0222
     27 N          15.4772   37.6138   11.8496 N.ar    1  UNL1       -0.0385
@<TRIPOS>BOND
     1    15    16    1
     2    16    14    1
     3     5    14    1
     4     6     7   ar
     5     8     9   ar
     6     9    12   ar
     7    10    12   ar
     8    10     3    1
     9     1    17    1
    10    18    19   ar
    11    20    24    1
    12    20    21   ar
    13    22    17   ar
    14    11    13   ar
    15    11     5   ar
    16     3     1   am
    17    24    23   ar
    18    24    27   ar
    19    25    26   ar
    20     5     6   ar
    21     7     8   ar
    22    10    13   ar
    23     1     2    2
    24    17    18   ar
    25    19    20   ar
    26    23    25   ar
    27    21    22   ar
    28    11     9   ar
    29    26    27   ar
    30     3     4    1
@<TRIPOS>MOLECULE
MolPort-016-720-965 19662125 MCULE-8541281991 PubChem-46977982 ZINC000019662125
 27 30 0 0 0
SMALL
GASTEIGER

@<TRIPOS>ATOM
      1 C          10.5005   37.0664    3.8476 C.2     1  UNL1        0.2509
      2 O          10.0012   36.6829    2.7551 O.2     1  UNL1       -0.2698
      3 N          11.5795   36.3397    4.4527 N.am    1  UNL1       -0.2606
      4 H          11.9253   36.6902    5.3052 H       1  UNL1        0.1571
      5 C          15.2133   33.3050    3.3816 C.ar    1  UNL1        0.1566
      6 C          15.4313   32.0438    2.7878 C.ar    1  UNL1        0.0385
      7 C          14.3536   31.2881    2.2888 C.ar    1  UNL1        0.0037
      8 C          13.0418   31.7770    2.3750 C.ar    1  UNL1        0.0083
      9 C          12.8487   33.0221    2.9658 C.ar    1  UNL1        0.0527
     10 C          12.2050   35.1559    3.9424 C.ar    1  UNL1        0.1659
     11 C          13.9001   33.7786    3.4622 C.ar    1  UNL1        0.1230
     12 S          11.4096   33.8492    3.2049 S.2     1  UNL1       -0.0513
     13 N          13.5453   34.9706    4.0083 N.ar    1  UNL1       -0.2208
     14 O          16.2660   34.0765    3.8896 O.3     1  UNL1       -0.4739
     15 C          18.1542   34.2312    5.3871 C.3     1  UNL1        0.0512
     16 C          17.5584   33.5489    4.1692 C.3     1  UNL1        0.2056
     17 C           9.9710   38.2720    4.5090 C.ar    1  UNL1        0.0538
     18 C           8.5929   38.4176    4.7227 C.ar    1  UNL1        0.0061
     19 C           8.0915   39.5613    5.3501 C.ar    1  UNL1        0.0194
     20 C           8.9605   40.5765    5.7731 C.ar    1  UNL1        0.0863
     21 C          10.3390   40.4311    5.5593 C.ar    1  UNL1        0.0194
     22 C          10.8399   39.2873    4.9320 C.ar    1  UNL1        0.0061
     23 C           7.3558   42.4624    6.0691 C.ar    1  UNL1        0.2258
     24 N           8.4422   41.7485    6.4163 N.ar    1  UNL1       -0.1886
     25 N           7.2206   43.4864    6.9356 N.ar    1  UNL1       -0.1045
     26 N           8.2260   43.3770    7.7931 N.ar    1  UNL1       -0.0222
     27 N           8.9667   42.3266    7.4815 N.ar    1  UNL1       -0.0385
@<TRIPOS>BOND
     1    15    16    1
     2    16    14    1
     3     5    14    1
     4     6     7   ar
     5     8     9   ar
     6     9    12   ar
     7    10    12   ar
     8    10     3    1
     9     1    17    1
    10    18    19   ar
    11    20    24    1
    12    20    21   ar
    13    22    17   ar
    14    11    13   ar
    15    11     5   ar
    16     3     1   am
    17    24    23   ar
    18    24    27   ar
    19    25    26   ar
    20     5     6   ar
    21     7     8   ar
    22    10    13   ar
    23     1     2    2
    24    17    18   ar
    25    19    20   ar
    26    23    25   ar
    27    21    22   ar
    28    11     9   ar
    29    26    27   ar
    30     3     4    1
@<TRIPOS>MOLECULE
MolPort-016-720-965 19662125 MCULE-8541281991 PubChem-46977982 ZINC000019662125
 27 30 0 0 0
SMALL
GASTEIGER

@<TRIPOS>ATOM
      1 C           8.9998   39.2931    4.8758 C.2     1  UNL1        0.2509
      2 O           9.3832   40.3505    4.3059 O.2     1  UNL1       -0.2698
      3 N           8.0462   39.3445    5.9464 N.am    1  UNL1       -0.2606
      4 H           7.7876   38.4845    6.3499 H       1  UNL1        0.1571
      5 C           6.9194   44.0538    6.2848 C.ar    1  UNL1        0.1566
      6 C           6.1649   44.9313    7.0920 C.ar    1  UNL1        0.0385
      7 C           5.4471   44.4485    8.2025 C.ar    1  UNL1        0.0037
      8 C           5.4689   43.0837    8.5250 C.ar    1  UNL1        0.0083
      9 C           6.2177   42.2353    7.7150 C.ar    1  UNL1        0.0527
     10 C           7.4317   40.5201    6.4881 C.ar    1  UNL1        0.1659
     11 C           6.9303   42.6956    6.6175 C.ar    1  UNL1        0.1230
     12 S           6.4259   40.5772    7.8552 S.2     1  UNL1       -0.0513
     13 N           7.6096   41.7415    5.9296 N.ar    1  UNL1       -0.2208
     14 O           7.6399   44.5058    5.1722 O.3     1  UNL1       -0.4739
     15 C           8.0107   45.8438    3.1964 C.3     1  UNL1        0.0512
     16 C           7.4937   45.8111    4.6231 C.3     1  UNL1        0.2056
     17 C           9.5364   37.9923    4.4381 C.ar    1  UNL1        0.0538
     18 C          10.5188   37.9289    3.4397 C.ar    1  UNL1        0.0061
     19 C          11.0272   36.6948    3.0252 C.ar    1  UNL1        0.0194
     20 C          10.5608   35.5059    3.6027 C.ar    1  UNL1        0.0863
     21 C           9.5780   35.5691    4.6013 C.ar    1  UNL1        0.0194
     22 C           9.0700   36.8032    5.0155 C.ar    1  UNL1        0.0061
     23 C          11.9793   33.4656    3.8133 C.ar    1  UNL1        0.2258
     24 N          11.0848   34.2416    3.1746 N.ar    1  UNL1       -0.1886
     25 N          12.2000   32.3635    3.0686 N.ar    1  UNL1       -0.1045
     26 N          11.4366   32.4892    1.9918 N.ar    1  UNL1       -0.0222
     27 N          10.7608   33.6243    2.0530 N.ar    1  UNL1       -0.0385
@<TRIPOS>BOND
     1    15    16    1
     2    16    14    1
     3     5    14    1
     4     6     7   ar
     5     8     9   ar
     6     9    12   ar
     7    10    12   ar
     8    10     3    1
     9     1    17    1
    10    18    19   ar
    11    20    24    1
    12    20    21   ar
    13    22    17   ar
    14    11    13   ar
    15    11     5   ar
    16     3     1   am
    17    24    23   ar
    18    24    27   ar
    19    25    26   ar
    20     5     6   ar
    21     7     8   ar
    22    10    13   ar
    23     1     2    2
    24    17    18   ar
    25    19    20   ar
    26    23    25   ar
    27    21    22   ar
    28    11     9   ar
    29    26    27   ar
    30     3     4    1
@<TRIPOS>MOLECULE
MolPort-016-720-965 19662125 MCULE-8541281991 PubChem-46977982 ZINC000019662125
 27 30 0 0 0
SMALL
GASTEIGER

@<TRIPOS>ATOM
      1 C           2.1932   42.1321   11.1839 C.2     1  UNL1        0.2509
      2 O           1.1272   41.6552   10.7084 O.2     1  UNL1       -0.2698
      3 N           2.2248   42.6662   12.5151 N.am    1  UNL1       -0.2606
      4 H           3.0871   43.0237   12.8277 H       1  UNL1        0.1571
      5 C          -0.9087   44.7183   15.6024 C.ar    1  UNL1        0.1566
      6 C          -2.0051   44.3739   16.4209 C.ar    1  UNL1        0.0385
      7 C          -2.4686   43.0461   16.4804 C.ar    1  UNL1        0.0037
      8 C          -1.8475   42.0412   15.7243 C.ar    1  UNL1        0.0083
      9 C          -0.7690   42.4026   14.9224 C.ar    1  UNL1        0.0527
     10 C           1.1289   42.7323   13.4358 C.ar    1  UNL1        0.1659
     11 C          -0.3006   43.7064   14.8529 C.ar    1  UNL1        0.1230
     12 S           0.1567   41.4270   13.9207 S.2     1  UNL1       -0.0513
     13 N           0.7589   43.8950   14.0242 N.ar    1  UNL1       -0.2208
     14 O          -0.4289   46.0316   15.5210 O.3     1  UNL1       -0.4739
     15 C           1.3901   47.4117   14.7347 C.3     1  UNL1        0.0512
     16 C           0.9311   46.3833   15.7522 C.3     1  UNL1        0.2056
     17 C           3.4181   42.1410   10.3646 C.ar    1  UNL1        0.0538
     18 C           4.1664   40.9678   10.1932 C.ar    1  UNL1        0.0061
     19 C           5.3280   40.9771    9.4161 C.ar    1  UNL1        0.0194
     20 C           5.7585   42.1596    8.7989 C.ar    1  UNL1        0.0863
     21 C           5.0101   43.3333    8.9704 C.ar    1  UNL1        0.0194
     22 C           3.8488   43.3236    9.7474 C.ar    1  UNL1        0.0061
     23 C           8.2221   42.2752    8.4292 C.ar    1  UNL1        0.2258
     24 N           6.9508   42.1651    8.0024 N.ar    1  UNL1       -0.1886
     25 N           9.0392   42.2361    7.3575 N.ar    1  UNL1       -0.1045
     26 N           8.2511   42.1031    6.2996 N.ar    1  UNL1       -0.0222
     27 N           6.9872   42.0598    6.6864 N.ar    1  UNL1       -0.0385
@<TRIPOS>BOND
     1    15    16    1
     2    16    14    1
     3     5    14    1
     4     6     7   ar
     5     8     9   ar
     6     9    12   ar
     7    10    12   ar
     8    10     3    1
     9     1    17    1
    10    18    19   ar
    11    20    24    1
    12    20    21   ar
    13    22    17   ar
    14    11    13   ar
    15    11     5   ar
    16     3     1   am
    17    24    23   ar
    18    24    27   ar
    19    25    26   ar
    20     5     6   ar
    21     7     8   ar
    22    10    13   ar
    23     1     2    2
    24    17    18   ar
    25    19    20   ar
    26    23    25   ar
    27    21    22   ar
    28    11     9   ar
    29    26    27   ar
    30     3     4    1
@<TRIPOS>MOLECULE
MolPort-016-720-965 19662125 MCULE-8541281991 PubChem-46977982 ZINC000019662125
 27 30 0 0 0
SMALL
GASTEIGER

@<TRIPOS>ATOM
      1 C           9.4888   40.9638   12.9365 C.2     1  UNL1        0.2509
      2 O          10.2246   39.9482   12.8063 O.2     1  UNL1       -0.2698
      3 N           9.2909   41.8680   11.8403 N.am    1  UNL1       -0.2606
      4 H           8.7054   42.6420   12.0057 H       1  UNL1        0.1571
      5 C          12.2625   40.2217    8.3732 C.ar    1  UNL1        0.1566
      6 C          12.5317   40.4061    7.0005 C.ar    1  UNL1        0.0385
      7 C          11.7922   41.3322    6.2409 C.ar    1  UNL1        0.0037
      8 C          10.7720   42.0880    6.8372 C.ar    1  UNL1        0.0083
      9 C          10.5217   41.8894    8.1917 C.ar    1  UNL1        0.0527
     10 C           9.8589   41.7593   10.5293 C.ar    1  UNL1        0.1659
     11 C          11.2415   40.9808    8.9535 C.ar    1  UNL1        0.1230
     12 S           9.3771   42.6407    9.1600 S.2     1  UNL1       -0.0513
     13 N          10.8748   40.9049   10.2592 N.ar    1  UNL1       -0.2208
     14 O          12.9797   39.3049    9.1520 O.3     1  UNL1       -0.4739
     15 C          15.0199   40.5463    9.5096 C.3     1  UNL1        0.0512
     16 C          13.9332   39.6917   10.1359 C.3     1  UNL1        0.2056
     17 C           8.8260   41.2245   14.2265 C.ar    1  UNL1        0.0538
     18 C           8.5915   40.1773   15.1289 C.ar    1  UNL1        0.0061
     19 C           7.9627   40.4254   16.3522 C.ar    1  UNL1        0.0194
     20 C           7.5591   41.7242   16.6913 C.ar    1  UNL1        0.0863
     21 C           7.7935   42.7718   15.7886 C.ar    1  UNL1        0.0194
     22 C           8.4222   42.5233   14.5657 C.ar    1  UNL1        0.0061
     23 C           7.1410   42.9928   18.7973 C.ar    1  UNL1        0.2258
     24 N           6.9143   41.9747   17.9472 N.ar    1  UNL1       -0.1886
     25 N           6.3223   42.8550   19.8596 N.ar    1  UNL1       -0.1045
     26 N           5.6133   41.7569   19.6367 N.ar    1  UNL1       -0.0222
     27 N           5.9691   41.2221   18.4806 N.ar    1  UNL1       -0.0385
@<TRIPOS>BOND
     1    15    16    1
     2    16    14    1
     3     5    14    1
     4     6     7   ar
     5     8     9   ar
     6     9    12   ar
     7    10    12   ar
     8    10     3    1
     9     1    17    1
    10    18    19   ar
    11    20    24    1
    12    20    21   ar
    13    22    17   ar
    14    11    13   ar
    15    11     5   ar
    16     3     1   am
    17    24    23   ar
    18    24    27   ar
    19    25    26   ar
    20     5     6   ar
    21     7     8   ar
    22    10    13   ar
    23     1     2    2
    24    17    18   ar
    25    19    20   ar
    26    23    25   ar
    27    21    22   ar
    28    11     9   ar
    29    26    27   ar
    30     3     4    1
