@<TRIPOS>MOLECULE
MolPort-005-018-059 11932735 CHEMBL1518335 CSSS00160014974 PubChem-24790852 ZINC000011932735
 32 35 0 0 0
SMALL
GASTEIGER

@<TRIPOS>ATOM
      1 C           9.8451   41.4365    6.9991 C.ar    1  UNL1        0.1325
      2 C           8.7778   42.2733    7.2640 C.ar    1  UNL1        0.0565
      3 C           7.9200   41.4725    8.0093 C.ar    1  UNL1        0.1230
      4 N           8.4613   40.2463    8.1652 N.ar    1  UNL1       -0.1666
      5 N           9.6335   40.2371    7.5565 N.ar    1  UNL1       -0.2394
      6 C          10.5083   39.0722    7.4408 C.3     1  UNL1        0.1093
      7 C          11.9804   39.4890    7.2865 C.3     1  UNL1        0.0418
      8 C          12.7704   39.3525    8.5903 C.3     1  UNL1        0.0744
      9 C          10.9645   38.5425    9.9151 C.3     1  UNL1        0.0744
     10 C          10.2823   38.1005    8.6061 C.3     1  UNL1        0.0418
     11 N          11.9046   39.6508    9.7266 N.3     1  UNL1       -0.2688
     12 C          12.7417   39.7050   10.9145 C.3     1  UNL1        0.0989
     13 C          13.9941   38.9240   10.7002 C.2     1  UNL1       -0.0088
     14 C          15.1717   39.5354   10.6012 C.2     1  UNL1       -0.0032
     15 C          16.4293   38.8043   10.3918 C.ar    1  UNL1       -0.0003
     16 C          16.4474   37.4975    9.8782 C.ar    1  UNL1       -0.0000
     17 C          17.6614   36.8259    9.7018 C.ar    1  UNL1       -0.0000
     18 C          18.8626   37.4575   10.0346 C.ar    1  UNL1       -0.0000
     19 C          18.8514   38.7619   10.5388 C.ar    1  UNL1       -0.0000
     20 C          17.6369   39.4318   10.7183 C.ar    1  UNL1       -0.0000
     21 O          12.1629   42.9355    7.9394 O.2     1  UNL1       -0.2747
     22 C          12.1640   42.4650    6.7721 C.2     1  UNL1        0.2275
     23 N          11.0253   41.7678    6.2561 N.am    1  UNL1       -0.2695
     24 H          11.0552   41.4926    5.3114 H       1  UNL1        0.1562
     25 C          13.3668   42.6441    5.9106 C.3     1  UNL1        0.0901
     26 C          14.1591   43.8772    6.3279 C.3     1  UNL1        0.0359
     27 C          15.4653   43.5084    6.9524 C.ar    1  UNL1       -0.0217
     28 C          15.5751   42.3788    7.7746 C.ar    1  UNL1       -0.0043
     29 C          16.8078   42.0402    8.3404 C.ar    1  UNL1       -0.0003
     30 C          17.9354   42.8263    8.0834 C.ar    1  UNL1       -0.0000
     31 C          17.8304   43.9501    7.2578 C.ar    1  UNL1       -0.0003
     32 C          16.5973   44.2880    6.6907 C.ar    1  UNL1       -0.0043
@<TRIPOS>BOND
     1    22    23   am
     2    25    22    1
     3    25    26    1
     4    26    27    1
     5    28    29   ar
     6    30    31   ar
     7    32    27   ar
     8     2     3   ar
     9     6     5    1
    10     6     7    1
    11     7     8    1
    12     8    11    1
    13    12    11    1
    14    12    13    1
    15    14    15    1
    16    16    17   ar
    17    18    19   ar
    18    20    15   ar
    19     9    11    1
    20     9    10    1
    21    10     6    1
    22    23     1    1
    23     5     4   ar
    24     5     1   ar
    25    22    21    2
    26    27    28   ar
    27    29    30   ar
    28    31    32   ar
    29     1     2   ar
    30     3     4   ar
    31    13    14    2
    32    15    16   ar
    33    17    18   ar
    34    19    20   ar
    35    23    24    1
@<TRIPOS>MOLECULE
MolPort-005-018-059 11932735 CHEMBL1518335 CSSS00160014974 PubChem-24790852 ZINC000011932735
 32 35 0 0 0
SMALL
GASTEIGER

@<TRIPOS>ATOM
      1 C          10.4073   39.8595    5.3464 C.ar    1  UNL1        0.1325
      2 C          10.8646   39.7419    4.0476 C.ar    1  UNL1        0.0565
      3 C           9.9819   38.8312    3.4783 C.ar    1  UNL1        0.1230
      4 N           9.0692   38.4467    4.3949 N.ar    1  UNL1       -0.1666
      5 N           9.3302   39.0831    5.5226 N.ar    1  UNL1       -0.2394
      6 C           8.6069   38.8935    6.7782 C.3     1  UNL1        0.1093
      7 C           9.1530   39.8112    7.8846 C.3     1  UNL1        0.0418
      8 C           8.2708   41.0399    8.1188 C.3     1  UNL1        0.0744
      9 C           6.6356   40.5150    6.4687 C.3     1  UNL1        0.0744
     10 C           7.0952   39.0476    6.5674 C.3     1  UNL1        0.0418
     11 N           7.6770   41.4701    6.8570 N.3     1  UNL1       -0.2688
     12 C           7.0182   42.7448    7.0934 C.3     1  UNL1        0.0989
     13 C           6.2112   42.6848    8.3462 C.2     1  UNL1       -0.0088
     14 C           5.3602   41.6853    8.5630 C.2     1  UNL1       -0.0032
     15 C           4.5475   41.5869    9.7837 C.ar    1  UNL1       -0.0003
     16 C           4.8060   40.6184   10.7672 C.ar    1  UNL1       -0.0000
     17 C           4.0060   40.5450   11.9120 C.ar    1  UNL1       -0.0000
     18 C           2.9465   41.4403   12.0810 C.ar    1  UNL1       -0.0000
     19 C           2.6894   42.4122   11.1088 C.ar    1  UNL1       -0.0000
     20 C           3.4875   42.4829    9.9625 C.ar    1  UNL1       -0.0000
     21 O          12.5418   39.1669    7.2085 O.2     1  UNL1       -0.2747
     22 C          12.0480   40.3243    7.2381 C.2     1  UNL1        0.2275
     23 N          10.9646   40.6868    6.3756 N.am    1  UNL1       -0.2695
     24 H          10.5689   41.5797    6.4999 H       1  UNL1        0.1562
     25 C          12.5944   41.3303    8.1922 C.3     1  UNL1        0.0901
     26 C          12.5871   42.7254    7.5788 C.3     1  UNL1        0.0359
     27 C          13.9331   43.1034    7.0520 C.ar    1  UNL1       -0.0217
     28 C          15.1022   42.6122    7.6487 C.ar    1  UNL1       -0.0043
     29 C          16.3535   42.9652    7.1350 C.ar    1  UNL1       -0.0003
     30 C          16.4410   43.8064    6.0214 C.ar    1  UNL1       -0.0000
     31 C          15.2760   44.2926    5.4197 C.ar    1  UNL1       -0.0003
     32 C          14.0241   43.9384    5.9329 C.ar    1  UNL1       -0.0043
@<TRIPOS>BOND
     1    22    23   am
     2    25    22    1
     3    25    26    1
     4    26    27    1
     5    28    29   ar
     6    30    31   ar
     7    32    27   ar
     8     2     3   ar
     9     6     5    1
    10     6     7    1
    11     7     8    1
    12     8    11    1
    13    12    11    1
    14    12    13    1
    15    14    15    1
    16    16    17   ar
    17    18    19   ar
    18    20    15   ar
    19     9    11    1
    20     9    10    1
    21    10     6    1
    22    23     1    1
    23     5     4   ar
    24     5     1   ar
    25    22    21    2
    26    27    28   ar
    27    29    30   ar
    28    31    32   ar
    29     1     2   ar
    30     3     4   ar
    31    13    14    2
    32    15    16   ar
    33    17    18   ar
    34    19    20   ar
    35    23    24    1
@<TRIPOS>MOLECULE
MolPort-005-018-059 11932735 CHEMBL1518335 CSSS00160014974 PubChem-24790852 ZINC000011932735
 32 35 0 0 0
SMALL
GASTEIGER

@<TRIPOS>ATOM
      1 C           8.0993   41.7746   10.4833 C.ar    1  UNL1        0.1325
      2 C           8.1629   41.7862   11.8637 C.ar    1  UNL1        0.0565
      3 C           9.4729   41.4028   12.1274 C.ar    1  UNL1        0.1230
      4 N          10.1261   41.1834   10.9671 N.ar    1  UNL1       -0.1666
      5 N           9.2868   41.4205    9.9750 N.ar    1  UNL1       -0.2394
      6 C           9.5915   41.2357    8.5578 C.3     1  UNL1        0.1093
      7 C          10.8374   42.0356    8.1426 C.3     1  UNL1        0.0418
      8 C          12.0886   41.1608    8.0322 C.3     1  UNL1        0.0744
      9 C          11.0359   39.1099    8.6304 C.3     1  UNL1        0.0744
     10 C           9.6964   39.7452    8.2105 C.3     1  UNL1        0.0418
     11 N          12.0395   40.0992    9.0324 N.3     1  UNL1       -0.2688
     12 C          13.3284   39.4259    9.0221 C.3     1  UNL1        0.0989
     13 C          14.4329   40.4254    8.9499 C.2     1  UNL1       -0.0088
     14 C          14.5689   41.2175    7.8895 C.2     1  UNL1       -0.0032
     15 C          15.6412   42.2165    7.7787 C.ar    1  UNL1       -0.0003
     16 C          16.8206   42.1213    8.5349 C.ar    1  UNL1       -0.0000
     17 C          17.8166   43.0955    8.4136 C.ar    1  UNL1       -0.0000
     18 C          17.6406   44.1672    7.5342 C.ar    1  UNL1       -0.0000
     19 C          16.4717   44.2628    6.7724 C.ar    1  UNL1       -0.0000
     20 C          15.4744   43.2903    6.8968 C.ar    1  UNL1       -0.0000
     21 O           7.5599   44.2930    9.1158 O.2     1  UNL1       -0.2747
     22 C           6.7557   43.3340    8.9835 C.2     1  UNL1        0.2275
     23 N           6.9583   42.0993    9.6789 N.am    1  UNL1       -0.2695
     24 H           6.2546   41.4156    9.5978 H       1  UNL1        0.1562
     25 C           5.5690   43.4896    8.0954 C.3     1  UNL1        0.0901
     26 C           4.3040   43.7291    8.9107 C.3     1  UNL1        0.0359
     27 C           3.9771   42.5578    9.7788 C.ar    1  UNL1       -0.0217
     28 C           3.7352   42.7244   11.1491 C.ar    1  UNL1       -0.0043
     29 C           3.4175   41.6196   11.9446 C.ar    1  UNL1       -0.0003
     30 C           3.3363   40.3458   11.3732 C.ar    1  UNL1       -0.0000
     31 C           3.5703   40.1776   10.0048 C.ar    1  UNL1       -0.0003
     32 C           3.8869   41.2832    9.2087 C.ar    1  UNL1       -0.0043
@<TRIPOS>BOND
     1    22    23   am
     2    25    22    1
     3    25    26    1
     4    26    27    1
     5    28    29   ar
     6    30    31   ar
     7    32    27   ar
     8     2     3   ar
     9     6     5    1
    10     6     7    1
    11     7     8    1
    12     8    11    1
    13    12    11    1
    14    12    13    1
    15    14    15    1
    16    16    17   ar
    17    18    19   ar
    18    20    15   ar
    19     9    11    1
    20     9    10    1
    21    10     6    1
    22    23     1    1
    23     5     4   ar
    24     5     1   ar
    25    22    21    2
    26    27    28   ar
    27    29    30   ar
    28    31    32   ar
    29     1     2   ar
    30     3     4   ar
    31    13    14    2
    32    15    16   ar
    33    17    18   ar
    34    19    20   ar
    35    23    24    1
@<TRIPOS>MOLECULE
MolPort-005-018-059 11932735 CHEMBL1518335 CSSS00160014974 PubChem-24790852 ZINC000011932735
 32 35 0 0 0
SMALL
GASTEIGER

@<TRIPOS>ATOM
      1 C           8.0393   41.8372   11.6377 C.ar    1  UNL1        0.1325
      2 C           8.5477   41.4860   12.8738 C.ar    1  UNL1        0.0565
      3 C           9.8616   41.1307   12.5907 C.ar    1  UNL1        0.1230
      4 N          10.0968   41.2693   11.2692 N.ar    1  UNL1       -0.1666
      5 N           8.9878   41.7073   10.7008 N.ar    1  UNL1       -0.2394
      6 C           8.8110   41.9251    9.2667 C.3     1  UNL1        0.1093
      7 C           9.9318   42.8063    8.6905 C.3     1  UNL1        0.0418
      8 C          10.9960   41.9941    7.9484 C.3     1  UNL1        0.0744
      9 C           9.9977   39.8602    8.2977 C.3     1  UNL1        0.0744
     10 C           8.6602   40.5908    8.5251 C.3     1  UNL1        0.0418
     11 N          11.1652   40.6954    8.5923 N.3     1  UNL1       -0.2688
     12 C          12.3156   40.0488    7.9814 C.3     1  UNL1        0.0989
     13 C          13.3233   41.0683    7.5696 C.2     1  UNL1       -0.0088
     14 C          14.4925   41.1651    8.1972 C.2     1  UNL1       -0.0032
     15 C          15.5137   42.1535    7.8227 C.ar    1  UNL1       -0.0003
     16 C          15.2705   43.1334    6.8467 C.ar    1  UNL1       -0.0000
     17 C          16.2684   44.0521    6.5059 C.ar    1  UNL1       -0.0000
     18 C          17.5122   43.9982    7.1405 C.ar    1  UNL1       -0.0000
     19 C          17.7574   43.0297    8.1191 C.ar    1  UNL1       -0.0000
     20 C          16.7604   42.1090    8.4570 C.ar    1  UNL1       -0.0000
     21 O           5.5977   40.2430   11.6169 O.2     1  UNL1       -0.2747
     22 C           5.5278   41.4823   11.4086 C.2     1  UNL1        0.2275
     23 N           6.7082   42.2905   11.3599 N.am    1  UNL1       -0.2695
     24 H           6.5964   43.2374   11.1151 H       1  UNL1        0.1562
     25 C           4.1953   42.1167   11.2008 C.3     1  UNL1        0.0901
     26 C           3.7095   41.9117    9.7710 C.3     1  UNL1        0.0359
     27 C           4.2613   42.9481    8.8470 C.ar    1  UNL1       -0.0217
     28 C           3.5318   44.1072    8.5498 C.ar    1  UNL1       -0.0043
     29 C           4.0683   45.0733    7.6936 C.ar    1  UNL1       -0.0003
     30 C           5.3366   44.8867    7.1349 C.ar    1  UNL1       -0.0000
     31 C           6.0697   43.7343    7.4351 C.ar    1  UNL1       -0.0003
     32 C           5.5334   42.7683    8.2928 C.ar    1  UNL1       -0.0043
@<TRIPOS>BOND
     1    22    23   am
     2    25    22    1
     3    25    26    1
     4    26    27    1
     5    28    29   ar
     6    30    31   ar
     7    32    27   ar
     8     2     3   ar
     9     6     5    1
    10     6     7    1
    11     7     8    1
    12     8    11    1
    13    12    11    1
    14    12    13    1
    15    14    15    1
    16    16    17   ar
    17    18    19   ar
    18    20    15   ar
    19     9    11    1
    20     9    10    1
    21    10     6    1
    22    23     1    1
    23     5     4   ar
    24     5     1   ar
    25    22    21    2
    26    27    28   ar
    27    29    30   ar
    28    31    32   ar
    29     1     2   ar
    30     3     4   ar
    31    13    14    2
    32    15    16   ar
    33    17    18   ar
    34    19    20   ar
    35    23    24    1
@<TRIPOS>MOLECULE
MolPort-005-018-059 11932735 CHEMBL1518335 CSSS00160014974 PubChem-24790852 ZINC000011932735
 32 35 0 0 0
SMALL
GASTEIGER

@<TRIPOS>ATOM
      1 C          13.6436   41.6828    7.3951 C.ar    1  UNL1        0.1325
      2 C          14.4934   42.7725    7.3778 C.ar    1  UNL1        0.0565
      3 C          14.0332   43.5208    6.3004 C.ar    1  UNL1        0.1230
      4 N          12.9798   42.8992    5.7303 N.ar    1  UNL1       -0.1666
      5 N          12.7454   41.7894    6.4072 N.ar    1  UNL1       -0.2394
      6 C          11.7239   40.8011    6.0678 C.3     1  UNL1        0.1093
      7 C          11.6989   39.6478    7.0846 C.3     1  UNL1        0.0418
      8 C          10.5544   39.7769    8.0927 C.3     1  UNL1        0.0744
      9 C           9.6561   41.8033    7.2214 C.3     1  UNL1        0.0744
     10 C          10.3544   41.4688    5.8892 C.3     1  UNL1        0.0418
     11 N          10.3057   41.1858    8.3808 N.3     1  UNL1       -0.2688
     12 C           9.3584   41.2484    9.4824 C.3     1  UNL1        0.0989
     13 C           8.0358   41.7397    8.9992 C.2     1  UNL1       -0.0088
     14 C           7.5098   42.8653    9.4755 C.2     1  UNL1       -0.0032
     15 C           6.2110   43.3857    9.0258 C.ar    1  UNL1       -0.0003
     16 C           5.0011   42.7879    9.4141 C.ar    1  UNL1       -0.0000
     17 C           3.7827   43.3018    8.9588 C.ar    1  UNL1       -0.0000
     18 C           3.7671   44.4166    8.1164 C.ar    1  UNL1       -0.0000
     19 C           4.9685   45.0211    7.7330 C.ar    1  UNL1       -0.0000
     20 C           6.1868   44.5047    8.1857 C.ar    1  UNL1       -0.0000
     21 O          15.9601   40.6610    8.8419 O.2     1  UNL1       -0.2747
     22 C          14.8283   40.1508    9.0491 C.2     1  UNL1        0.2275
     23 N          13.6763   40.5897    8.3216 N.am    1  UNL1       -0.2695
     24 H          12.8356   40.0995    8.4702 H       1  UNL1        0.1562
     25 C          14.6872   39.0666   10.0619 C.3     1  UNL1        0.0901
     26 C          15.8380   39.0986   11.0605 C.3     1  UNL1        0.0359
     27 C          17.0545   38.4182   10.5223 C.ar    1  UNL1       -0.0217
     28 C          18.3267   38.9808   10.6924 C.ar    1  UNL1       -0.0043
     29 C          19.4561   38.3245   10.1942 C.ar    1  UNL1       -0.0003
     30 C          19.3186   37.1025    9.5284 C.ar    1  UNL1       -0.0000
     31 C          18.0511   36.5354    9.3633 C.ar    1  UNL1       -0.0003
     32 C          16.9214   37.1914    9.8629 C.ar    1  UNL1       -0.0043
@<TRIPOS>BOND
     1    22    23   am
     2    25    22    1
     3    25    26    1
     4    26    27    1
     5    28    29   ar
     6    30    31   ar
     7    32    27   ar
     8     2     3   ar
     9     6     5    1
    10     6     7    1
    11     7     8    1
    12     8    11    1
    13    12    11    1
    14    12    13    1
    15    14    15    1
    16    16    17   ar
    17    18    19   ar
    18    20    15   ar
    19     9    11    1
    20     9    10    1
    21    10     6    1
    22    23     1    1
    23     5     4   ar
    24     5     1   ar
    25    22    21    2
    26    27    28   ar
    27    29    30   ar
    28    31    32   ar
    29     1     2   ar
    30     3     4   ar
    31    13    14    2
    32    15    16   ar
    33    17    18   ar
    34    19    20   ar
    35    23    24    1
@<TRIPOS>MOLECULE
MolPort-005-018-059 11932735 CHEMBL1518335 CSSS00160014974 PubChem-24790852 ZINC000011932735
 32 35 0 0 0
SMALL
GASTEIGER

@<TRIPOS>ATOM
      1 C           9.2980   41.6165   10.1138 C.ar    1  UNL1        0.1325
      2 C           9.8536   41.9018   11.3466 C.ar    1  UNL1        0.0565
      3 C          10.8209   40.9150   11.4984 C.ar    1  UNL1        0.1230
      4 N          10.8231   40.1084   10.4165 N.ar    1  UNL1       -0.1666
      5 N           9.9018   40.5477    9.5780 N.ar    1  UNL1       -0.2394
      6 C           9.5473   39.9081    8.3128 C.3     1  UNL1        0.1093
      7 C           8.9246   40.9140    7.3305 C.3     1  UNL1        0.0418
      8 C           9.9153   41.3839    6.2625 C.3     1  UNL1        0.0744
      9 C          11.7641   40.0893    7.0230 C.3     1  UNL1        0.0744
     10 C          10.7500   39.1624    7.7208 C.3     1  UNL1        0.0418
     11 N          11.2585   41.4510    6.8294 N.3     1  UNL1       -0.2688
     12 C          12.1191   42.0884    5.8456 C.3     1  UNL1        0.0989
     13 C          13.5375   42.0623    6.3058 C.2     1  UNL1       -0.0088
     14 C          14.1398   43.1721    6.7254 C.2     1  UNL1       -0.0032
     15 C          15.5345   43.1904    7.1886 C.ar    1  UNL1       -0.0003
     16 C          16.4377   44.1825    6.7739 C.ar    1  UNL1       -0.0000
     17 C          17.7613   44.1640    7.2249 C.ar    1  UNL1       -0.0000
     18 C          18.1879   43.1567    8.0944 C.ar    1  UNL1       -0.0000
     19 C          17.2908   42.1707    8.5173 C.ar    1  UNL1       -0.0000
     20 C          15.9681   42.1876    8.0631 C.ar    1  UNL1       -0.0000
     21 O           8.9738   44.5103    9.9579 O.2     1  UNL1       -0.2747
     22 C           8.1482   43.7639    9.3702 C.2     1  UNL1        0.2275
     23 N           8.2435   42.3388    9.4653 N.am    1  UNL1       -0.2695
     24 H           7.5240   41.8102    9.0503 H       1  UNL1        0.1562
     25 C           7.0490   44.3738    8.5697 C.3     1  UNL1        0.0901
     26 C           6.2808   43.3090    7.7960 C.3     1  UNL1        0.0359
     27 C           5.2199   42.6749    8.6355 C.ar    1  UNL1       -0.0217
     28 C           5.2306   41.2961    8.8863 C.ar    1  UNL1       -0.0043
     29 C           4.2379   40.7207    9.6848 C.ar    1  UNL1       -0.0003
     30 C           3.2339   41.5212   10.2388 C.ar    1  UNL1       -0.0000
     31 C           3.2246   42.8983    9.9959 C.ar    1  UNL1       -0.0003
     32 C           4.2186   43.4741    9.1980 C.ar    1  UNL1       -0.0043
@<TRIPOS>BOND
     1    22    23   am
     2    25    22    1
     3    25    26    1
     4    26    27    1
     5    28    29   ar
     6    30    31   ar
     7    32    27   ar
     8     2     3   ar
     9     6     5    1
    10     6     7    1
    11     7     8    1
    12     8    11    1
    13    12    11    1
    14    12    13    1
    15    14    15    1
    16    16    17   ar
    17    18    19   ar
    18    20    15   ar
    19     9    11    1
    20     9    10    1
    21    10     6    1
    22    23     1    1
    23     5     4   ar
    24     5     1   ar
    25    22    21    2
    26    27    28   ar
    27    29    30   ar
    28    31    32   ar
    29     1     2   ar
    30     3     4   ar
    31    13    14    2
    32    15    16   ar
    33    17    18   ar
    34    19    20   ar
    35    23    24    1
@<TRIPOS>MOLECULE
MolPort-005-018-059 11932735 CHEMBL1518335 CSSS00160014974 PubChem-24790852 ZINC000011932735
 32 35 0 0 0
SMALL
GASTEIGER

@<TRIPOS>ATOM
      1 C          14.9021   41.9688    7.5519 C.ar    1  UNL1        0.1325
      2 C          15.4761   43.0459    6.9036 C.ar    1  UNL1        0.0565
      3 C          14.4783   43.4630    6.0301 C.ar    1  UNL1        0.1230
      4 N          13.3929   42.6731    6.1670 N.ar    1  UNL1       -0.1666
      5 N          13.6564   41.7752    7.0992 N.ar    1  UNL1       -0.2394
      6 C          12.7578   40.6945    7.4993 C.3     1  UNL1        0.1093
      7 C          12.8797   40.3904    9.0017 C.3     1  UNL1        0.0418
      8 C          11.7365   40.9966    9.8194 C.3     1  UNL1        0.0744
      9 C          10.5948   41.9971    7.9842 C.3     1  UNL1        0.0744
     10 C          11.3168   40.9923    7.0658 C.3     1  UNL1        0.0418
     11 N          11.3234   42.2648    9.2272 N.3     1  UNL1       -0.2688
     12 C          10.3847   42.8925   10.1435 C.3     1  UNL1        0.0989
     13 C           8.9899   42.4742    9.8213 C.2     1  UNL1       -0.0088
     14 C           8.1670   42.0478   10.7759 C.2     1  UNL1       -0.0032
     15 C           6.7853   41.6282   10.5023 C.ar    1  UNL1       -0.0003
     16 C           5.8973   41.2902   11.5363 C.ar    1  UNL1       -0.0000
     17 C           4.5922   40.8840   11.2404 C.ar    1  UNL1       -0.0000
     18 C           4.1673   40.8165    9.9109 C.ar    1  UNL1       -0.0000
     19 C           5.0447   41.1598    8.8773 C.ar    1  UNL1       -0.0000
     20 C           6.3508   41.5625    9.1736 C.ar    1  UNL1       -0.0000
     21 O          17.6837   42.0247    8.4255 O.2     1  UNL1       -0.2747
     22 C          16.8704   41.2572    9.0031 C.2     1  UNL1        0.2275
     23 N          15.5092   41.1633    8.5703 N.am    1  UNL1       -0.2695
     24 H          14.9422   40.4887    9.0091 H       1  UNL1        0.1562
     25 C          17.3343   40.4267   10.1503 C.3     1  UNL1        0.0901
     26 C          17.2437   38.9414    9.8215 C.3     1  UNL1        0.0359
     27 C          15.9647   38.3448   10.3119 C.ar    1  UNL1       -0.0217
     28 C          15.4245   37.2036    9.7038 C.ar    1  UNL1       -0.0043
     29 C          14.2337   36.6502   10.1836 C.ar    1  UNL1       -0.0003
     30 C          13.5811   37.2325   11.2747 C.ar    1  UNL1       -0.0000
     31 C          14.1213   38.3673   11.8878 C.ar    1  UNL1       -0.0003
     32 C          15.3134   38.9201   11.4086 C.ar    1  UNL1       -0.0043
@<TRIPOS>BOND
     1    22    23   am
     2    25    22    1
     3    25    26    1
     4    26    27    1
     5    28    29   ar
     6    30    31   ar
     7    32    27   ar
     8     2     3   ar
     9     6     5    1
    10     6     7    1
    11     7     8    1
    12     8    11    1
    13    12    11    1
    14    12    13    1
    15    14    15    1
    16    16    17   ar
    17    18    19   ar
    18    20    15   ar
    19     9    11    1
    20     9    10    1
    21    10     6    1
    22    23     1    1
    23     5     4   ar
    24     5     1   ar
    25    22    21    2
    26    27    28   ar
    27    29    30   ar
    28    31    32   ar
    29     1     2   ar
    30     3     4   ar
    31    13    14    2
    32    15    16   ar
    33    17    18   ar
    34    19    20   ar
    35    23    24    1
@<TRIPOS>MOLECULE
MolPort-005-018-059 11932735 CHEMBL1518335 CSSS00160014974 PubChem-24790852 ZINC000011932735
 32 35 0 0 0
SMALL
GASTEIGER

@<TRIPOS>ATOM
      1 C          10.5076   39.6203    5.4551 C.ar    1  UNL1        0.1325
      2 C          10.9983   39.6718    4.1642 C.ar    1  UNL1        0.0565
      3 C           9.9193   39.2529    3.3942 C.ar    1  UNL1        0.1230
      4 N           8.8682   38.9766    4.1942 N.ar    1  UNL1       -0.1666
      5 N           9.2321   39.2114    5.4421 N.ar    1  UNL1       -0.2394
      6 C           8.3967   38.9734    6.6172 C.3     1  UNL1        0.1093
      7 C           8.9358   39.7190    7.8494 C.3     1  UNL1        0.0418
      8 C           8.1555   41.0012    8.1493 C.3     1  UNL1        0.0744
      9 C           6.6152   40.8070    6.3431 C.3     1  UNL1        0.0744
     10 C           6.9275   39.2983    6.3188 C.3     1  UNL1        0.0418
     11 N           7.7065   41.6102    6.9013 N.3     1  UNL1       -0.2688
     12 C           7.1520   42.9153    7.2239 C.3     1  UNL1        0.0989
     13 C           6.2922   42.8253    8.4391 C.2     1  UNL1       -0.0088
     14 C           5.5007   41.7747    8.6394 C.2     1  UNL1       -0.0032
     15 C           4.6393   41.6454    9.8232 C.ar    1  UNL1       -0.0003
     16 C           4.8648   40.6588   10.7968 C.ar    1  UNL1       -0.0000
     17 C           4.0190   40.5562   11.9058 C.ar    1  UNL1       -0.0000
     18 C           2.9463   41.4402   12.0490 C.ar    1  UNL1       -0.0000
     19 C           2.7217   42.4300   11.0869 C.ar    1  UNL1       -0.0000
     20 C           3.5657   42.5299    9.9762 C.ar    1  UNL1       -0.0000
     21 O          11.9363   42.0984    6.0219 O.2     1  UNL1       -0.2747
     22 C          11.8669   41.2088    6.9096 C.2     1  UNL1        0.2275
     23 N          11.2189   39.9585    6.6526 N.am    1  UNL1       -0.2695
     24 H          11.2659   39.2732    7.3578 H       1  UNL1        0.1562
     25 C          12.4765   41.4579    8.2465 C.3     1  UNL1        0.0901
     26 C          13.9511   41.0734    8.2548 C.3     1  UNL1        0.0359
     27 C          14.3110   40.2935    9.4773 C.ar    1  UNL1       -0.0217
     28 C          13.3475   40.0002   10.4519 C.ar    1  UNL1       -0.0043
     29 C          13.6979   39.2579   11.5835 C.ar    1  UNL1       -0.0003
     30 C          15.0105   38.8027   11.7431 C.ar    1  UNL1       -0.0000
     31 C          15.9724   39.0880   10.7690 C.ar    1  UNL1       -0.0003
     32 C          15.6214   39.8295    9.6362 C.ar    1  UNL1       -0.0043
@<TRIPOS>BOND
     1    22    23   am
     2    25    22    1
     3    25    26    1
     4    26    27    1
     5    28    29   ar
     6    30    31   ar
     7    32    27   ar
     8     2     3   ar
     9     6     5    1
    10     6     7    1
    11     7     8    1
    12     8    11    1
    13    12    11    1
    14    12    13    1
    15    14    15    1
    16    16    17   ar
    17    18    19   ar
    18    20    15   ar
    19     9    11    1
    20     9    10    1
    21    10     6    1
    22    23     1    1
    23     5     4   ar
    24     5     1   ar
    25    22    21    2
    26    27    28   ar
    27    29    30   ar
    28    31    32   ar
    29     1     2   ar
    30     3     4   ar
    31    13    14    2
    32    15    16   ar
    33    17    18   ar
    34    19    20   ar
    35    23    24    1
@<TRIPOS>MOLECULE
MolPort-005-018-059 11932735 CHEMBL1518335 CSSS00160014974 PubChem-24790852 ZINC000011932735
 32 35 0 0 0
SMALL
GASTEIGER

@<TRIPOS>ATOM
      1 C          12.6596   37.3230   10.0367 C.ar    1  UNL1        0.1325
      2 C          12.7354   36.1538    9.3040 C.ar    1  UNL1        0.0565
      3 C          13.8848   35.5433    9.7928 C.ar    1  UNL1        0.1230
      4 N          14.4387   36.3151   10.7512 N.ar    1  UNL1       -0.1666
      5 N          13.6829   37.3884   10.8984 N.ar    1  UNL1       -0.2394
      6 C          13.9765   38.5028   11.7970 C.3     1  UNL1        0.1093
      7 C          15.3533   38.3397   12.4622 C.3     1  UNL1        0.0418
      8 C          16.4292   39.2106   11.8090 C.3     1  UNL1        0.0744
      9 C          15.0149   40.1987   10.1672 C.3     1  UNL1        0.0744
     10 C          13.8191   39.8458   11.0727 C.3     1  UNL1        0.0418
     11 N          16.1716   39.3238   10.3770 N.3     1  UNL1       -0.2688
     12 C          17.3190   39.9842    9.7751 C.3     1  UNL1        0.0989
     13 C          16.8740   41.1481    8.9555 C.2     1  UNL1       -0.0088
     14 C          15.7168   41.1188    8.2996 C.2     1  UNL1       -0.0032
     15 C          15.2400   42.2436    7.4826 C.ar    1  UNL1       -0.0003
     16 C          13.9788   42.2261    6.8654 C.ar    1  UNL1       -0.0000
     17 C          13.5605   43.3086    6.0851 C.ar    1  UNL1       -0.0000
     18 C          14.3985   44.4147    5.9203 C.ar    1  UNL1       -0.0000
     19 C          15.6523   44.4413    6.5392 C.ar    1  UNL1       -0.0000
     20 C          16.0716   43.3569    7.3165 C.ar    1  UNL1       -0.0000
     21 O          12.3716   39.3236    7.9347 O.2     1  UNL1       -0.2747
     22 C          11.5137   39.2658    8.8539 C.2     1  UNL1        0.2275
     23 N          11.6473   38.3323    9.9308 N.am    1  UNL1       -0.2695
     24 H          10.9885   38.3882   10.6601 H       1  UNL1        0.1562
     25 C          10.3448   40.1899    8.8248 C.3     1  UNL1        0.0901
     26 C           9.2523   39.6602    7.9038 C.3     1  UNL1        0.0359
     27 C           9.6896   39.6552    6.4751 C.ar    1  UNL1       -0.0217
     28 C          10.2917   40.7846    5.9041 C.ar    1  UNL1       -0.0043
     29 C          10.7071   40.7588    4.5696 C.ar    1  UNL1       -0.0003
     30 C          10.5264   39.6035    3.8025 C.ar    1  UNL1       -0.0000
     31 C           9.9322   38.4728    4.3716 C.ar    1  UNL1       -0.0003
     32 C           9.5177   38.4983    5.7072 C.ar    1  UNL1       -0.0043
@<TRIPOS>BOND
     1    22    23   am
     2    25    22    1
     3    25    26    1
     4    26    27    1
     5    28    29   ar
     6    30    31   ar
     7    32    27   ar
     8     2     3   ar
     9     6     5    1
    10     6     7    1
    11     7     8    1
    12     8    11    1
    13    12    11    1
    14    12    13    1
    15    14    15    1
    16    16    17   ar
    17    18    19   ar
    18    20    15   ar
    19     9    11    1
    20     9    10    1
    21    10     6    1
    22    23     1    1
    23     5     4   ar
    24     5     1   ar
    25    22    21    2
    26    27    28   ar
    27    29    30   ar
    28    31    32   ar
    29     1     2   ar
    30     3     4   ar
    31    13    14    2
    32    15    16   ar
    33    17    18   ar
    34    19    20   ar
    35    23    24    1
@<TRIPOS>MOLECULE
MolPort-005-018-059 11932735 CHEMBL1518335 CSSS00160014974 PubChem-24790852 ZINC000011932735
 32 35 0 0 0
SMALL
GASTEIGER

@<TRIPOS>ATOM
      1 C           9.0672   42.6380    9.8556 C.ar    1  UNL1        0.1325
      2 C           9.1074   43.9303   10.3436 C.ar    1  UNL1        0.0565
      3 C           8.3013   44.6333    9.4555 C.ar    1  UNL1        0.1230
      4 N           7.8243   43.7955    8.5114 N.ar    1  UNL1       -0.1666
      5 N           8.2872   42.5852    8.7680 N.ar    1  UNL1       -0.2394
      6 C           8.0512   41.4050    7.9393 C.3     1  UNL1        0.1093
      7 C           7.9310   41.7781    6.4524 C.3     1  UNL1        0.0418
      8 C           9.2104   41.4820    5.6660 C.3     1  UNL1        0.0744
      9 C          10.4579   40.6139    7.4998 C.3     1  UNL1        0.0744
     10 C           9.1151   40.3312    8.2008 C.3     1  UNL1        0.0418
     11 N          10.3755   41.6985    6.5177 N.3     1  UNL1       -0.2688
     12 C          11.5582   41.6017    5.6771 C.3     1  UNL1        0.0989
     13 C          12.7923   41.6681    6.5119 C.2     1  UNL1       -0.0088
     14 C          13.7202   42.5947    6.2864 C.2     1  UNL1       -0.0032
     15 C          14.9493   42.6966    7.0857 C.ar    1  UNL1       -0.0003
     16 C          15.8032   43.8073    6.9895 C.ar    1  UNL1       -0.0000
     17 C          16.9711   43.8673    7.7564 C.ar    1  UNL1       -0.0000
     18 C          17.2898   42.8201    8.6250 C.ar    1  UNL1       -0.0000
     19 C          16.4391   41.7152    8.7311 C.ar    1  UNL1       -0.0000
     20 C          15.2731   41.6540    7.9613 C.ar    1  UNL1       -0.0000
     21 O          11.9327   42.0970    9.8651 O.2     1  UNL1       -0.2747
     22 C          11.1505   41.2925   10.4353 C.2     1  UNL1        0.2275
     23 N           9.7339   41.4959   10.4086 N.am    1  UNL1       -0.2695
     24 H           9.1699   40.7921   10.8032 H       1  UNL1        0.1562
     25 C          11.7078   40.1047   11.1422 C.3     1  UNL1        0.0901
     26 C          13.1820   39.9118   10.8076 C.3     1  UNL1        0.0359
     27 C          13.4619   38.5248   10.3276 C.ar    1  UNL1       -0.0217
     28 C          13.2560   37.4197   11.1645 C.ar    1  UNL1       -0.0043
     29 C          13.5102   36.1276   10.6952 C.ar    1  UNL1       -0.0003
     30 C          13.9666   35.9350    9.3875 C.ar    1  UNL1       -0.0000
     31 C          14.1664   37.0354    8.5479 C.ar    1  UNL1       -0.0003
     32 C          13.9108   38.3280    9.0171 C.ar    1  UNL1       -0.0043
@<TRIPOS>BOND
     1    22    23   am
     2    25    22    1
     3    25    26    1
     4    26    27    1
     5    28    29   ar
     6    30    31   ar
     7    32    27   ar
     8     2     3   ar
     9     6     5    1
    10     6     7    1
    11     7     8    1
    12     8    11    1
    13    12    11    1
    14    12    13    1
    15    14    15    1
    16    16    17   ar
    17    18    19   ar
    18    20    15   ar
    19     9    11    1
    20     9    10    1
    21    10     6    1
    22    23     1    1
    23     5     4   ar
    24     5     1   ar
    25    22    21    2
    26    27    28   ar
    27    29    30   ar
    28    31    32   ar
    29     1     2   ar
    30     3     4   ar
    31    13    14    2
    32    15    16   ar
    33    17    18   ar
    34    19    20   ar
    35    23    24    1
