@<TRIPOS>MOLECULE
MolPort-046-675-095 MCULE-2555886565 PubChem-137943872
 21 21 0 0 0
SMALL
GASTEIGER

@<TRIPOS>ATOM
      1 C          15.1259   42.4760    7.5644 C.ar    1  UNL1        0.0213
      2 C          14.2687   42.9175    6.5516 C.ar    1  UNL1        0.1044
      3 C          13.4302   40.9120    7.7810 C.ar    1  UNL1        0.0832
      4 C          14.6582   41.3477    8.2545 C.ar    1  UNL1        0.0203
      5 S          12.9236   41.9053    6.5186 S.2     1  UNL1       -0.0659
      6 C          13.3241   38.5713    8.8024 C.2     1  UNL1        0.4055
      7 O          14.5757   38.4170    8.7943 O.2     1  UNL1       -0.2261
      8 N          12.7323   39.7797    8.3132 N.am    1  UNL1       -0.2446
      9 H          11.7501   39.8382    8.3457 H       1  UNL1        0.1587
     10 O          12.4852   37.5605    9.2912 O.3     1  UNL1       -0.4417
     11 C          12.8955   36.5285   10.1916 C.3     1  UNL1        0.1378
     12 C          13.8126   35.5391    9.4936 C.3     1  UNL1        0.0437
     13 C          13.6568   37.1601   11.3379 C.3     1  UNL1        0.0437
     14 C          11.6897   35.8000   10.7598 C.3     1  UNL1        0.0437
     15 C          14.4673   44.0648    5.6496 C.2     1  UNL1        0.3439
     16 O          14.3594   45.3674    6.1203 O.3     1  UNL1       -0.4768
     17 O          14.7376   43.8702    4.4354 O.2     1  UNL1       -0.2445
     18 H          14.1586   45.5246    7.0219 H       1  UNL1        0.2954
     19 C          16.4341   43.1139    7.8949 C.3     1  UNL1        0.1695
     20 C          17.9391   44.0236    6.5641 C.3     1  UNL1        0.1746
     21 O          17.3779   42.7976    6.9176 O.3     1  UNL1       -0.3463
@<TRIPOS>BOND
     1    20    21    1
     2    19    21    1
     3    19     1    1
     4     2     5   ar
     5     2    15    1
     6     3     5   ar
     7     3     8    1
     8     6    10    1
     9    11    10    1
    10    11    12    1
    11    11    13    1
    12    11    14    1
    13     4     1   ar
    14    15    16    1
    15     8     6   am
    16     1     2   ar
    17     3     4   ar
    18     6     7    2
    19    15    17    2
    20    16    18    1
    21     8     9    1
@<TRIPOS>MOLECULE
MolPort-046-675-095 MCULE-2555886565 PubChem-137943872
 21 21 0 0 0
SMALL
GASTEIGER

@<TRIPOS>ATOM
      1 C          15.4540   42.3775    7.5117 C.ar    1  UNL1        0.0213
      2 C          15.0496   43.2364    6.4849 C.ar    1  UNL1        0.1044
      3 C          13.2697   41.6545    7.2374 C.ar    1  UNL1        0.0832
      4 C          14.4565   41.4860    7.9340 C.ar    1  UNL1        0.0203
      5 S          13.4461   42.8896    6.1059 S.2     1  UNL1       -0.0659
      6 C          10.9232   41.2923    8.1839 C.2     1  UNL1        0.4055
      7 O          10.8491   42.4508    8.6763 O.2     1  UNL1       -0.2261
      8 N          12.0937   40.8716    7.4748 N.am    1  UNL1       -0.2446
      9 H          12.0900   39.9551    7.1153 H       1  UNL1        0.1587
     10 O           9.8590   40.3907    8.3215 O.3     1  UNL1       -0.4417
     11 C           8.7293   40.3273    7.4475 C.3     1  UNL1        0.1378
     12 C           7.4760   40.8172    8.1522 C.3     1  UNL1        0.0437
     13 C           8.9888   41.2230    6.2547 C.3     1  UNL1        0.0437
     14 C           8.5166   38.9093    6.9458 C.3     1  UNL1        0.0437
     15 C          15.8526   44.2790    5.8236 C.2     1  UNL1        0.3439
     16 O          17.0459   43.9617    5.1868 O.3     1  UNL1       -0.4768
     17 O          15.4594   45.4750    5.8321 O.2     1  UNL1       -0.2445
     18 H          17.3487   43.0750    5.1740 H       1  UNL1        0.2954
     19 C          16.8198   42.3721    8.1131 C.3     1  UNL1        0.1695
     20 C          18.2960   43.9975    8.3191 C.3     1  UNL1        0.1746
     21 O          17.0504   43.5752    8.7806 O.3     1  UNL1       -0.3463
@<TRIPOS>BOND
     1    20    21    1
     2    19    21    1
     3    19     1    1
     4     2     5   ar
     5     2    15    1
     6     3     5   ar
     7     3     8    1
     8     6    10    1
     9    11    10    1
    10    11    12    1
    11    11    13    1
    12    11    14    1
    13     4     1   ar
    14    15    16    1
    15     8     6   am
    16     1     2   ar
    17     3     4   ar
    18     6     7    2
    19    15    17    2
    20    16    18    1
    21     8     9    1
@<TRIPOS>MOLECULE
MolPort-046-675-095 MCULE-2555886565 PubChem-137943872
 21 21 0 0 0
SMALL
GASTEIGER

@<TRIPOS>ATOM
      1 C          11.1297   41.0584    9.5443 C.ar    1  UNL1        0.0213
      2 C          10.3819   41.3452    8.3980 C.ar    1  UNL1        0.1044
      3 C          12.8517   41.4043    8.0331 C.ar    1  UNL1        0.0832
      4 C          12.5175   41.0939    9.3423 C.ar    1  UNL1        0.0203
      5 S          11.4497   41.6378    7.1294 S.2     1  UNL1       -0.0659
      6 C          14.8439   42.6857    7.0724 C.2     1  UNL1        0.4055
      7 O          14.2238   43.7825    7.0203 O.2     1  UNL1       -0.2261
      8 N          14.2010   41.5038    7.5621 N.am    1  UNL1       -0.2446
      9 H          14.7386   40.6792    7.5766 H       1  UNL1        0.1587
     10 O          16.1778   42.6011    6.6506 O.3     1  UNL1       -0.4417
     11 C          17.2824   43.2139    7.3203 C.3     1  UNL1        0.1378
     12 C          17.9246   44.2724    6.4403 C.3     1  UNL1        0.0437
     13 C          16.7745   43.8828    8.5801 C.3     1  UNL1        0.0437
     14 C          18.3174   42.1737    7.7128 C.3     1  UNL1        0.0437
     15 C           8.9148   41.3910    8.2762 C.2     1  UNL1        0.3439
     16 O           8.1568   40.2299    8.3613 O.3     1  UNL1       -0.4768
     17 O           8.3337   42.4926    8.0918 O.2     1  UNL1       -0.2445
     18 H           8.5782   39.4043    8.4984 H       1  UNL1        0.2954
     19 C          10.5367   40.7555   10.8799 C.3     1  UNL1        0.1695
     20 C           8.8237   41.5573   12.0141 C.3     1  UNL1        0.1746
     21 O          10.0485   41.9264   11.4602 O.3     1  UNL1       -0.3463
@<TRIPOS>BOND
     1    20    21    1
     2    19    21    1
     3    19     1    1
     4     2     5   ar
     5     2    15    1
     6     3     5   ar
     7     3     8    1
     8     6    10    1
     9    11    10    1
    10    11    12    1
    11    11    13    1
    12    11    14    1
    13     4     1   ar
    14    15    16    1
    15     8     6   am
    16     1     2   ar
    17     3     4   ar
    18     6     7    2
    19    15    17    2
    20    16    18    1
    21     8     9    1
@<TRIPOS>MOLECULE
MolPort-046-675-095 MCULE-2555886565 PubChem-137943872
 21 21 0 0 0
SMALL
GASTEIGER

@<TRIPOS>ATOM
      1 C          -0.5087   42.2008   14.5685 C.ar    1  UNL1        0.0213
      2 C           0.1303   43.3189   15.1134 C.ar    1  UNL1        0.1044
      3 C           1.0927   42.5682   12.9347 C.ar    1  UNL1        0.0832
      4 C           0.0322   41.7756   13.3459 C.ar    1  UNL1        0.0203
      5 S           1.3671   43.7826   14.0691 S.2     1  UNL1       -0.0659
      6 C           2.8731   41.4002   11.5208 C.2     1  UNL1        0.4055
      7 O           3.2506   40.6491   12.4608 O.2     1  UNL1       -0.2261
      8 N           1.8206   42.3500   11.7203 N.am    1  UNL1       -0.2446
      9 H           1.5730   42.9076   10.9476 H       1  UNL1        0.1587
     10 O           3.4780   41.3204   10.2590 O.3     1  UNL1       -0.4417
     11 C           4.7542   41.8766    9.9329 C.3     1  UNL1        0.1378
     12 C           4.6198   43.3384    9.5425 C.3     1  UNL1        0.0437
     13 C           5.6475   41.7871   11.1520 C.3     1  UNL1        0.0437
     14 C           5.4060   41.0998    8.8020 C.3     1  UNL1        0.0437
     15 C          -0.1916   44.0052   16.3762 C.2     1  UNL1        0.3439
     16 O           0.4035   45.2184   16.6989 O.3     1  UNL1       -0.4768
     17 O          -1.0148   43.4916   17.1785 O.2     1  UNL1       -0.2445
     18 H           1.0177   45.6103   16.1097 H       1  UNL1        0.2954
     19 C          -1.6529   41.4908   15.2119 C.3     1  UNL1        0.1695
     20 C          -2.2824   39.5257   14.4336 C.3     1  UNL1        0.1746
     21 O          -2.4523   40.8950   14.2362 O.3     1  UNL1       -0.3463
@<TRIPOS>BOND
     1    20    21    1
     2    19    21    1
     3    19     1    1
     4     2     5   ar
     5     2    15    1
     6     3     5   ar
     7     3     8    1
     8     6    10    1
     9    11    10    1
    10    11    12    1
    11    11    13    1
    12    11    14    1
    13     4     1   ar
    14    15    16    1
    15     8     6   am
    16     1     2   ar
    17     3     4   ar
    18     6     7    2
    19    15    17    2
    20    16    18    1
    21     8     9    1
@<TRIPOS>MOLECULE
MolPort-046-675-095 MCULE-2555886565 PubChem-137943872
 21 21 0 0 0
SMALL
GASTEIGER

@<TRIPOS>ATOM
      1 C          15.1083   42.1999    7.6083 C.ar    1  UNL1        0.0213
      2 C          15.2661   43.4058    6.9182 C.ar    1  UNL1        0.1044
      3 C          13.1363   42.2127    6.3920 C.ar    1  UNL1        0.0832
      4 C          13.9138   41.5265    7.3121 C.ar    1  UNL1        0.0203
      5 S          13.9140   43.6373    5.9418 S.2     1  UNL1       -0.0659
      6 C          10.6414   41.7248    6.6581 C.2     1  UNL1        0.4055
      7 O          10.5974   42.1465    7.8458 O.2     1  UNL1       -0.2261
      8 N          11.8679   41.7430    5.9198 N.am    1  UNL1       -0.2446
      9 H          11.8365   41.3993    4.9977 H       1  UNL1        0.1587
     10 O           9.4880   41.2282    6.0356 O.3     1  UNL1       -0.4417
     11 C           9.1521   39.8422    5.9337 C.3     1  UNL1        0.1378
     12 C           9.7997   39.0481    7.0550 C.3     1  UNL1        0.0437
     13 C           7.6496   39.6980    6.0510 C.3     1  UNL1        0.0437
     14 C           9.5847   39.2817    4.5898 C.3     1  UNL1        0.0437
     15 C          16.3997   44.3423    7.0028 C.2     1  UNL1        0.3439
     16 O          17.0923   44.5158    8.1946 O.3     1  UNL1       -0.4768
     17 O          16.7505   44.9979    5.9868 O.2     1  UNL1       -0.2445
     18 H          16.8404   44.0334    8.9574 H       1  UNL1        0.2954
     19 C          16.1084   41.6433    8.5661 C.3     1  UNL1        0.1695
     20 C          16.6518   40.0124    9.9477 C.3     1  UNL1        0.1746
     21 O          15.7096   40.3742    8.9862 O.3     1  UNL1       -0.3463
@<TRIPOS>BOND
     1    20    21    1
     2    19    21    1
     3    19     1    1
     4     2     5   ar
     5     2    15    1
     6     3     5   ar
     7     3     8    1
     8     6    10    1
     9    11    10    1
    10    11    12    1
    11    11    13    1
    12    11    14    1
    13     4     1   ar
    14    15    16    1
    15     8     6   am
    16     1     2   ar
    17     3     4   ar
    18     6     7    2
    19    15    17    2
    20    16    18    1
    21     8     9    1
@<TRIPOS>MOLECULE
MolPort-046-675-095 MCULE-2555886565 PubChem-137943872
 21 21 0 0 0
SMALL
GASTEIGER

@<TRIPOS>ATOM
      1 C           9.8030   41.6338    7.5558 C.ar    1  UNL1        0.0213
      2 C           9.8056   40.7145    6.5022 C.ar    1  UNL1        0.1044
      3 C          12.0868   41.4325    7.2209 C.ar    1  UNL1        0.0832
      4 C          11.0834   42.0408    7.9594 C.ar    1  UNL1        0.0203
      5 S          11.4045   40.4031    6.0757 S.2     1  UNL1       -0.0659
      6 C          14.3487   42.4407    6.5878 C.2     1  UNL1        0.4055
      7 O          13.9095   42.9854    5.5386 O.2     1  UNL1       -0.2261
      8 N          13.4831   41.6739    7.4319 N.am    1  UNL1       -0.2446
      9 H          13.8868   41.2736    8.2357 H       1  UNL1        0.1587
     10 O          15.6962   42.5749    6.9493 O.3     1  UNL1       -0.4417
     11 C          16.4573   43.7779    6.8166 C.3     1  UNL1        0.1378
     12 C          15.5659   44.9351    6.4002 C.3     1  UNL1        0.0437
     13 C          17.0767   44.1095    8.1578 C.3     1  UNL1        0.0437
     14 C          17.5745   43.5982    5.8032 C.3     1  UNL1        0.0437
     15 C           8.6371   40.0982    5.8508 C.2     1  UNL1        0.3439
     16 O           8.4721   38.7188    5.8421 O.3     1  UNL1       -0.4768
     17 O           7.7734   40.8242    5.2923 O.2     1  UNL1       -0.2445
     18 H           9.1084   38.1682    6.2546 H       1  UNL1        0.2954
     19 C           8.5680   42.1667    8.2024 C.3     1  UNL1        0.1695
     20 C           8.3404   42.3208   10.3906 C.3     1  UNL1        0.1746
     21 O           8.9093   42.9659    9.2937 O.3     1  UNL1       -0.3463
@<TRIPOS>BOND
     1    20    21    1
     2    19    21    1
     3    19     1    1
     4     2     5   ar
     5     2    15    1
     6     3     5   ar
     7     3     8    1
     8     6    10    1
     9    11    10    1
    10    11    12    1
    11    11    13    1
    12    11    14    1
    13     4     1   ar
    14    15    16    1
    15     8     6   am
    16     1     2   ar
    17     3     4   ar
    18     6     7    2
    19    15    17    2
    20    16    18    1
    21     8     9    1
@<TRIPOS>MOLECULE
MolPort-046-675-095 MCULE-2555886565 PubChem-137943872
 21 21 0 0 0
SMALL
GASTEIGER

@<TRIPOS>ATOM
      1 C           5.5498   42.7777    9.0206 C.ar    1  UNL1        0.0213
      2 C           4.6931   41.9969    9.8027 C.ar    1  UNL1        0.1044
      3 C           7.1126   41.6835   10.3357 C.ar    1  UNL1        0.0832
      4 C           6.9098   42.6012    9.3164 C.ar    1  UNL1        0.0203
      5 S           5.6292   41.0894   10.8682 S.2     1  UNL1       -0.0659
      6 C           9.6661   41.6447   10.2285 C.2     1  UNL1        0.4055
      7 O           9.7174   42.3084    9.1574 O.2     1  UNL1       -0.2261
      8 N           8.4077   41.3220   10.8301 N.am    1  UNL1       -0.2446
      9 H           8.4350   40.8008   11.6649 H       1  UNL1        0.1587
     10 O          10.8425   41.2082   10.8527 O.3     1  UNL1       -0.4417
     11 C          11.8236   40.3674   10.2406 C.3     1  UNL1        0.1378
     12 C          12.7541   39.7774   11.2863 C.3     1  UNL1        0.0437
     13 C          11.1150   39.2308    9.5347 C.3     1  UNL1        0.0437
     14 C          12.6300   41.1424    9.2128 C.3     1  UNL1        0.0437
     15 C           3.2223   41.9481    9.7408 C.2     1  UNL1        0.3439
     16 O           2.5751   41.2591    8.7227 O.3     1  UNL1       -0.4768
     17 O           2.5365   42.5364   10.6176 O.2     1  UNL1       -0.2445
     18 H           3.0749   40.8175    8.0646 H       1  UNL1        0.2954
     19 C           5.0925   43.7104    7.9491 C.3     1  UNL1        0.1695
     20 C           3.4164   45.1322    7.7681 C.3     1  UNL1        0.1746
     21 O           4.5595   44.8662    8.5201 O.3     1  UNL1       -0.3463
@<TRIPOS>BOND
     1    20    21    1
     2    19    21    1
     3    19     1    1
     4     2     5   ar
     5     2    15    1
     6     3     5   ar
     7     3     8    1
     8     6    10    1
     9    11    10    1
    10    11    12    1
    11    11    13    1
    12    11    14    1
    13     4     1   ar
    14    15    16    1
    15     8     6   am
    16     1     2   ar
    17     3     4   ar
    18     6     7    2
    19    15    17    2
    20    16    18    1
    21     8     9    1
@<TRIPOS>MOLECULE
MolPort-046-675-095 MCULE-2555886565 PubChem-137943872
 21 21 0 0 0
SMALL
GASTEIGER

@<TRIPOS>ATOM
      1 C          12.8909   38.2616    9.5792 C.ar    1  UNL1        0.0213
      2 C          13.4297   39.1635   10.5021 C.ar    1  UNL1        0.1044
      3 C          11.0862   39.6944    9.8220 C.ar    1  UNL1        0.0832
      4 C          11.5754   38.5596    9.1935 C.ar    1  UNL1        0.0203
      5 S          12.2649   40.3306   10.8431 S.2     1  UNL1       -0.0659
      6 C           9.4213   41.3157    8.7576 C.2     1  UNL1        0.4055
      7 O          10.3075   41.9363    8.1097 O.2     1  UNL1       -0.2261
      8 N           9.7694   40.2151    9.6045 N.am    1  UNL1       -0.2446
      9 H           9.0320   39.7730   10.0841 H       1  UNL1        0.1587
     10 O           8.0746   41.6922    8.6620 O.3     1  UNL1       -0.4417
     11 C           7.2052   41.3342    7.5849 C.3     1  UNL1        0.1378
     12 C           7.7089   40.0871    6.8790 C.3     1  UNL1        0.0437
     13 C           5.8305   41.0429    8.1484 C.3     1  UNL1        0.0437
     14 C           7.0841   42.4754    6.5897 C.3     1  UNL1        0.0437
     15 C          14.7754   39.1336   11.0999 C.2     1  UNL1        0.3439
     16 O          15.8742   39.6229   10.4048 O.3     1  UNL1       -0.4768
     17 O          14.9398   38.6594   12.2547 O.2     1  UNL1       -0.2445
     18 H          15.7642   39.9782    9.5447 H       1  UNL1        0.2954
     19 C          13.6275   37.0892    9.0224 C.3     1  UNL1        0.1695
     20 C          13.3223   35.5865   10.6075 C.3     1  UNL1        0.1746
     21 O          12.9349   35.9126    9.3088 O.3     1  UNL1       -0.3463
@<TRIPOS>BOND
     1    20    21    1
     2    19    21    1
     3    19     1    1
     4     2     5   ar
     5     2    15    1
     6     3     5   ar
     7     3     8    1
     8     6    10    1
     9    11    10    1
    10    11    12    1
    11    11    13    1
    12    11    14    1
    13     4     1   ar
    14    15    16    1
    15     8     6   am
    16     1     2   ar
    17     3     4   ar
    18     6     7    2
    19    15    17    2
    20    16    18    1
    21     8     9    1
@<TRIPOS>MOLECULE
MolPort-046-675-095 MCULE-2555886565 PubChem-137943872
 21 21 0 0 0
SMALL
GASTEIGER

@<TRIPOS>ATOM
      1 C          13.0987   40.9325    8.8418 C.ar    1  UNL1        0.0213
      2 C          12.1332   40.5835    9.7912 C.ar    1  UNL1        0.1044
      3 C          14.1938   39.1758    9.8828 C.ar    1  UNL1        0.0832
      4 C          14.2561   40.1410    8.8896 C.ar    1  UNL1        0.0203
      5 S          12.7231   39.2915   10.6955 S.2     1  UNL1       -0.0659
      6 C          15.9282   38.0535   11.3880 C.2     1  UNL1        0.4055
      7 O          15.6296   38.7489   12.3968 O.2     1  UNL1       -0.2261
      8 N          15.2452   38.2382   10.1434 N.am    1  UNL1       -0.2446
      9 H          15.5253   37.6650    9.3936 H       1  UNL1        0.1587
     10 O          16.9373   37.0839   11.4650 O.3     1  UNL1       -0.4417
     11 C          18.1506   37.1118   10.7090 C.3     1  UNL1        0.1378
     12 C          17.9189   36.5917    9.3009 C.3     1  UNL1        0.0437
     13 C          18.6311   38.5447   10.6169 C.3     1  UNL1        0.0437
     14 C          19.2283   36.2871   11.3915 C.3     1  UNL1        0.0437
     15 C          10.8176   41.2118   10.0006 C.2     1  UNL1        0.3439
     16 O           9.6543   40.5900    9.5644 O.3     1  UNL1       -0.4768
     17 O          10.7386   42.3264   10.5806 O.2     1  UNL1       -0.2445
     18 H           9.7006   39.7603    9.1314 H       1  UNL1        0.2954
     19 C          12.9367   42.0297    7.8433 C.3     1  UNL1        0.1695
     20 C          14.1084   43.3527    6.5239 C.3     1  UNL1        0.1746
     21 O          14.0160   42.0318    6.9595 O.3     1  UNL1       -0.3463
@<TRIPOS>BOND
     1    20    21    1
     2    19    21    1
     3    19     1    1
     4     2     5   ar
     5     2    15    1
     6     3     5   ar
     7     3     8    1
     8     6    10    1
     9    11    10    1
    10    11    12    1
    11    11    13    1
    12    11    14    1
    13     4     1   ar
    14    15    16    1
    15     8     6   am
    16     1     2   ar
    17     3     4   ar
    18     6     7    2
    19    15    17    2
    20    16    18    1
    21     8     9    1
@<TRIPOS>MOLECULE
MolPort-046-675-095 MCULE-2555886565 PubChem-137943872
 21 21 0 0 0
SMALL
GASTEIGER

@<TRIPOS>ATOM
      1 C          13.1191   37.3352   10.0799 C.ar    1  UNL1        0.0213
      2 C          13.9078   38.2543   10.7788 C.ar    1  UNL1        0.1044
      3 C          11.6415   39.1170   10.1822 C.ar    1  UNL1        0.0832
      4 C          11.8465   37.8187    9.7411 C.ar    1  UNL1        0.0203
      5 S          13.0178   39.6693   10.9807 S.2     1  UNL1       -0.0659
      6 C          10.2097   40.8644    8.9865 C.2     1  UNL1        0.4055
      7 O          11.1337   41.2101    8.2010 O.2     1  UNL1       -0.2261
      8 N          10.4260   39.8441    9.9673 N.am    1  UNL1       -0.2446
      9 H           9.6653   39.6205   10.5510 H       1  UNL1        0.1587
     10 O           8.9495   41.4736    8.9153 O.3     1  UNL1       -0.4417
     11 C           8.4931   42.5024    9.7971 C.3     1  UNL1        0.1378
     12 C           7.6454   43.5159    9.0479 C.3     1  UNL1        0.0437
     13 C           7.6408   41.8712   10.8777 C.3     1  UNL1        0.0437
     14 C           9.6671   43.2026   10.4595 C.3     1  UNL1        0.0437
     15 C          15.2813   38.0592   11.2737 C.2     1  UNL1        0.3439
     16 O          15.5747   37.0473   12.1792 O.3     1  UNL1       -0.4768
     17 O          16.2059   38.8155   10.8760 O.2     1  UNL1       -0.2445
     18 H          14.8949   36.4782   12.4823 H       1  UNL1        0.2954
     19 C          13.5667   35.9636    9.6981 C.3     1  UNL1        0.1695
     20 C          15.2293   34.9023    8.7117 C.3     1  UNL1        0.1746
     21 O          14.4195   36.0310    8.5962 O.3     1  UNL1       -0.3463
@<TRIPOS>BOND
     1    20    21    1
     2    19    21    1
     3    19     1    1
     4     2     5   ar
     5     2    15    1
     6     3     5   ar
     7     3     8    1
     8     6    10    1
     9    11    10    1
    10    11    12    1
    11    11    13    1
    12    11    14    1
    13     4     1   ar
    14    15    16    1
    15     8     6   am
    16     1     2   ar
    17     3     4   ar
    18     6     7    2
    19    15    17    2
    20    16    18    1
    21     8     9    1
