@<TRIPOS>MOLECULE
MolPort-020-292-448 MCULE-2802633889 PubChem-110264916
 29 31 0 0 0
SMALL
GASTEIGER

@<TRIPOS>ATOM
      1 C          11.6707   41.2277   10.0811 C.ar    1  UNL1        0.0608
      2 C          13.4834   39.8604   10.7787 C.ar    1  UNL1        0.0602
      3 C          14.1711   40.1350    9.5954 C.ar    1  UNL1        0.0294
      4 C          13.5913   40.9756    8.6364 C.ar    1  UNL1        0.0518
      5 C          12.3308   41.5234    8.8856 C.ar    1  UNL1        0.0294
      6 C          14.0911   38.9691   11.8004 C.3     1  UNL1        0.0521
      7 N          12.2575   40.4064   10.9959 N.ar    1  UNL1       -0.2539
      8 C           7.7051   42.4039   10.8704 C.3     1  UNL1        0.0725
      9 C           8.3830   41.5969   11.9765 C.3     1  UNL1        0.0178
     10 C           9.9034   41.6038   11.7971 C.3     1  UNL1        0.0087
     11 C          10.3212   41.8101   10.3373 C.3     1  UNL1        0.0563
     12 C           9.2809   41.2201    9.3800 C.3     1  UNL1        0.0784
     13 N           7.9419   41.8213    9.5395 N.3     1  UNL1       -0.2647
     14 C           7.8272   42.9123    8.5812 C.3     1  UNL1        0.1587
     15 C           6.5474   43.6624    8.7879 C.2     1  UNL1        0.2420
     16 N           5.2860   42.9714    8.8498 N.am    1  UNL1       -0.2784
     17 O           6.5864   44.9193    8.8836 O.2     1  UNL1       -0.2734
     18 C           3.8753   44.6926    7.8475 C.3     1  UNL1        0.0233
     19 C           4.0396   43.7116    8.9942 C.3     1  UNL1        0.0935
     20 C           5.1927   41.5410    8.5861 C.3     1  UNL1        0.0935
     21 C           4.2976   40.8742    9.6140 C.3     1  UNL1        0.0233
     22 N          14.2487   41.2926    7.4013 N.pl3   1  UNL1       -0.2966
     23 H          14.4879   40.5304    6.8258 H       1  UNL1        0.1537
     24 C          14.5969   42.5940    6.9105 C.ar    1  UNL1        0.1516
     25 C          16.0950   44.4288    6.7821 C.ar    1  UNL1        0.1210
     26 C          15.2072   45.0958    5.9368 C.ar    1  UNL1        0.1196
     27 C          13.7111   43.2644    6.0642 C.ar    1  UNL1        0.1332
     28 N          15.7708   43.1947    7.2498 N.ar    1  UNL1       -0.2258
     29 N          14.0348   44.4990    5.5963 N.ar    1  UNL1       -0.2378
@<TRIPOS>BOND
     1    18    19    1
     2    19    16    1
     3    20    16    1
     4    20    21    1
     5    14    15    1
     6    14    13    1
     7     8    13    1
     8     8     9    1
     9     9    10    1
    10    10    11    1
    11    11    12    1
    12    11     1    1
    13    12    13    1
    14     2     7   ar
    15     3     4   ar
    16     4    22    1
    17     5     1   ar
    18    25    28   ar
    19    26    29   ar
    20    27    24   ar
    21     6     2    1
    22    16    15   am
    23    22    24    1
    24    15    17    2
    25     1     7   ar
    26     2     3   ar
    27     4     5   ar
    28    24    28   ar
    29    25    26   ar
    30    27    29   ar
    31    22    23    1
@<TRIPOS>MOLECULE
MolPort-020-292-448 MCULE-2802633889 PubChem-110264916
 29 31 0 0 0
SMALL
GASTEIGER

@<TRIPOS>ATOM
      1 C          14.9486   39.7088    9.8415 C.ar    1  UNL1        0.0608
      2 C          17.2654   39.3868   10.2550 C.ar    1  UNL1        0.0602
      3 C          17.5730   40.5506    9.5482 C.ar    1  UNL1        0.0294
      4 C          16.5415   41.3072    8.9770 C.ar    1  UNL1        0.0518
      5 C          15.2207   40.8784    9.1272 C.ar    1  UNL1        0.0294
      6 C          18.3537   38.5784   10.8630 C.3     1  UNL1        0.0521
      7 N          15.9713   38.9919   10.3857 N.ar    1  UNL1       -0.2539
      8 C          10.9957   38.2580    9.7956 C.3     1  UNL1        0.0725
      9 C          12.0789   37.2217    9.5007 C.3     1  UNL1        0.0178
     10 C          13.4485   37.7229    9.9660 C.3     1  UNL1        0.0087
     11 C          13.5361   39.2526    9.9914 C.3     1  UNL1        0.0563
     12 C          12.6446   39.8714    8.9101 C.3     1  UNL1        0.0784
     13 N          11.2202   39.5135    9.0608 N.3     1  UNL1       -0.2647
     14 C          10.5759   40.5680    9.8320 C.3     1  UNL1        0.1587
     15 C           9.5229   41.2503    9.0140 C.2     1  UNL1        0.2420
     16 N           8.4709   42.0055    9.6428 N.am    1  UNL1       -0.2784
     17 O           9.5557   41.1339    7.7588 O.2     1  UNL1       -0.2734
     18 C           7.6624   44.1114    8.7107 C.3     1  UNL1        0.0233
     19 C           7.4178   42.6193    8.8448 C.3     1  UNL1        0.0935
     20 C           8.3166   42.0272   11.0919 C.3     1  UNL1        0.0935
     21 C           6.9481   41.5010   11.4829 C.3     1  UNL1        0.0233
     22 N          16.7960   42.5103    8.2382 N.pl3   1  UNL1       -0.2966
     23 H          17.6581   42.9538    8.4096 H       1  UNL1        0.1537
     24 C          15.9366   43.1397    7.2785 C.ar    1  UNL1        0.1516
     25 C          13.9791   43.1464    5.9385 C.ar    1  UNL1        0.1210
     26 C          14.3290   44.3987    5.4318 C.ar    1  UNL1        0.1196
     27 C          16.2834   44.3931    6.7694 C.ar    1  UNL1        0.1332
     28 N          14.7894   42.5452    6.8490 N.ar    1  UNL1       -0.2258
     29 N          15.4734   44.9947    5.8584 N.ar    1  UNL1       -0.2378
@<TRIPOS>BOND
     1    18    19    1
     2    19    16    1
     3    20    16    1
     4    20    21    1
     5    14    15    1
     6    14    13    1
     7     8    13    1
     8     8     9    1
     9     9    10    1
    10    10    11    1
    11    11    12    1
    12    11     1    1
    13    12    13    1
    14     2     7   ar
    15     3     4   ar
    16     4    22    1
    17     5     1   ar
    18    25    28   ar
    19    26    29   ar
    20    27    24   ar
    21     6     2    1
    22    16    15   am
    23    22    24    1
    24    15    17    2
    25     1     7   ar
    26     2     3   ar
    27     4     5   ar
    28    24    28   ar
    29    25    26   ar
    30    27    29   ar
    31    22    23    1
@<TRIPOS>MOLECULE
MolPort-020-292-448 MCULE-2802633889 PubChem-110264916
 29 31 0 0 0
SMALL
GASTEIGER

@<TRIPOS>ATOM
      1 C          10.9928   41.0474    8.4386 C.ar    1  UNL1        0.0608
      2 C          12.8866   40.3994    9.7174 C.ar    1  UNL1        0.0602
      3 C          13.7430   40.9694    8.7738 C.ar    1  UNL1        0.0294
      4 C          13.2072   41.5912    7.6385 C.ar    1  UNL1        0.0518
      5 C          11.8207   41.6275    7.4739 C.ar    1  UNL1        0.0294
      6 C          13.4470   39.7372   10.9237 C.3     1  UNL1        0.0521
      7 N          11.5408   40.4484    9.5325 N.ar    1  UNL1       -0.2539
      8 C           6.9026   41.4332    7.5147 C.3     1  UNL1        0.0725
      9 C           7.7713   40.8332    6.4104 C.3     1  UNL1        0.0178
     10 C           9.1025   40.3354    6.9794 C.3     1  UNL1        0.0087
     11 C           9.5129   41.0831    8.2524 C.3     1  UNL1        0.0563
     12 C           8.9997   42.5263    8.2309 C.3     1  UNL1        0.0784
     13 N           7.5297   42.6155    8.1275 N.3     1  UNL1       -0.2647
     14 C           6.9942   42.7176    9.4782 C.3     1  UNL1        0.1587
     15 C           5.5266   43.0146    9.4419 C.2     1  UNL1        0.2420
     16 N           4.5705   42.0911    9.9946 N.am    1  UNL1       -0.2784
     17 O           5.1340   44.0811    8.8952 O.2     1  UNL1       -0.2734
     18 C           2.4421   41.2379    9.1584 C.3     1  UNL1        0.0233
     19 C           3.1412   42.3591    9.9055 C.3     1  UNL1        0.0935
     20 C           4.9804   40.7831   10.4898 C.3     1  UNL1        0.0935
     21 C           4.2787   40.4731   11.7991 C.3     1  UNL1        0.0233
     22 N          14.0367   42.1922    6.6341 N.pl3   1  UNL1       -0.2966
     23 H          13.7123   42.1321    5.7065 H       1  UNL1        0.1537
     24 C          15.2848   42.8706    6.8286 C.ar    1  UNL1        0.1516
     25 C          17.3603   43.1118    7.9519 C.ar    1  UNL1        0.1210
     26 C          17.6641   44.2166    7.1553 C.ar    1  UNL1        0.1196
     27 C          15.5925   43.9766    6.0332 C.ar    1  UNL1        0.1332
     28 N          16.1791   42.4643    7.7716 N.ar    1  UNL1       -0.2258
     29 N          16.7737   44.6247    6.2133 N.ar    1  UNL1       -0.2378
@<TRIPOS>BOND
     1    18    19    1
     2    19    16    1
     3    20    16    1
     4    20    21    1
     5    14    15    1
     6    14    13    1
     7     8    13    1
     8     8     9    1
     9     9    10    1
    10    10    11    1
    11    11    12    1
    12    11     1    1
    13    12    13    1
    14     2     7   ar
    15     3     4   ar
    16     4    22    1
    17     5     1   ar
    18    25    28   ar
    19    26    29   ar
    20    27    24   ar
    21     6     2    1
    22    16    15   am
    23    22    24    1
    24    15    17    2
    25     1     7   ar
    26     2     3   ar
    27     4     5   ar
    28    24    28   ar
    29    25    26   ar
    30    27    29   ar
    31    22    23    1
@<TRIPOS>MOLECULE
MolPort-020-292-448 MCULE-2802633889 PubChem-110264916
 29 31 0 0 0
SMALL
GASTEIGER

@<TRIPOS>ATOM
      1 C          12.9344   40.5491    9.9572 C.ar    1  UNL1        0.0608
      2 C          14.7171   39.1520   10.6730 C.ar    1  UNL1        0.0602
      3 C          15.5991   39.8010    9.8073 C.ar    1  UNL1        0.0294
      4 C          15.1334   40.8472    9.0003 C.ar    1  UNL1        0.0518
      5 C          13.7896   41.2200    9.0791 C.ar    1  UNL1        0.0294
      6 C          15.2030   38.0408   11.5315 C.3     1  UNL1        0.0521
      7 N          13.4139   39.5346   10.7297 N.ar    1  UNL1       -0.2539
      8 C           8.8040   41.2405   10.3965 C.3     1  UNL1        0.0725
      9 C           9.5720   41.0047   11.6960 C.3     1  UNL1        0.0178
     10 C          11.0745   41.2042   11.4805 C.3     1  UNL1        0.0087
     11 C          11.4986   40.9475   10.0305 C.3     1  UNL1        0.0563
     12 C          10.6041   39.8899    9.3761 C.3     1  UNL1        0.0784
     13 N           9.1785   40.2733    9.3521 N.3     1  UNL1       -0.2647
     14 C           8.9128   40.9179    8.0732 C.3     1  UNL1        0.1587
     15 C           8.0970   42.1588    8.2684 C.2     1  UNL1        0.2420
     16 N           6.6588   42.1021    8.2983 N.am    1  UNL1       -0.2784
     17 O           8.6897   43.2660    8.3829 O.2     1  UNL1       -0.2734
     18 C           5.8449   44.0761    7.1158 C.3     1  UNL1        0.0233
     19 C           5.8698   43.3196    8.4316 C.3     1  UNL1        0.0935
     20 C           5.9439   40.8647    8.0123 C.3     1  UNL1        0.0935
     21 C           6.1206   40.4801    6.5551 C.3     1  UNL1        0.0233
     22 N          15.9916   41.5498    8.0904 N.pl3   1  UNL1       -0.2966
     23 H          16.9250   41.2403    8.0433 H       1  UNL1        0.1537
     24 C          15.6433   42.6519    7.2419 C.ar    1  UNL1        0.1516
     25 C          16.1003   44.7963    6.3363 C.ar    1  UNL1        0.1210
     26 C          14.9186   44.7368    5.5964 C.ar    1  UNL1        0.1196
     27 C          14.4616   42.5958    6.4996 C.ar    1  UNL1        0.1332
     28 N          16.4360   43.7544    7.1417 N.ar    1  UNL1       -0.2258
     29 N          14.1252   43.6378    5.6941 N.ar    1  UNL1       -0.2378
@<TRIPOS>BOND
     1    18    19    1
     2    19    16    1
     3    20    16    1
     4    20    21    1
     5    14    15    1
     6    14    13    1
     7     8    13    1
     8     8     9    1
     9     9    10    1
    10    10    11    1
    11    11    12    1
    12    11     1    1
    13    12    13    1
    14     2     7   ar
    15     3     4   ar
    16     4    22    1
    17     5     1   ar
    18    25    28   ar
    19    26    29   ar
    20    27    24   ar
    21     6     2    1
    22    16    15   am
    23    22    24    1
    24    15    17    2
    25     1     7   ar
    26     2     3   ar
    27     4     5   ar
    28    24    28   ar
    29    25    26   ar
    30    27    29   ar
    31    22    23    1
@<TRIPOS>MOLECULE
MolPort-020-292-448 MCULE-2802633889 PubChem-110264916
 29 31 0 0 0
SMALL
GASTEIGER

@<TRIPOS>ATOM
      1 C          12.0070   41.0018    9.9723 C.ar    1  UNL1        0.0608
      2 C          13.7681   39.6933   10.8824 C.ar    1  UNL1        0.0602
      3 C          14.6128   40.0672    9.8359 C.ar    1  UNL1        0.0294
      4 C          14.1392   40.9282    8.8373 C.ar    1  UNL1        0.0518
      5 C          12.8251   41.3960    8.9103 C.ar    1  UNL1        0.0294
      6 C          14.2626   38.7797   11.9448 C.3     1  UNL1        0.0521
      7 N          12.4933   40.1628   10.9291 N.ar    1  UNL1       -0.2539
      8 C           7.9170   41.9462   10.3075 C.3     1  UNL1        0.0725
      9 C           8.5759   41.4201   11.5816 C.3     1  UNL1        0.0178
     10 C          10.1001   41.5288   11.4873 C.3     1  UNL1        0.0087
     11 C          10.6020   41.4992   10.0398 C.3     1  UNL1        0.0563
     12 C           9.6800   40.6530    9.1563 C.3     1  UNL1        0.0784
     13 N           8.2908   41.1520    9.1260 N.3     1  UNL1       -0.2647
     14 C           8.1599   42.0333    7.9736 C.3     1  UNL1        0.1587
     15 C           8.9088   41.4806    6.8001 C.2     1  UNL1        0.2420
     16 N           8.4856   40.2635    6.1584 N.am    1  UNL1       -0.2784
     17 O           9.9371   42.0867    6.3932 O.2     1  UNL1       -0.2734
     18 C          10.6170   39.2494    5.5373 C.3     1  UNL1        0.0233
     19 C           9.2509   39.7010    5.0537 C.3     1  UNL1        0.0935
     20 C           7.3982   39.4596    6.7021 C.3     1  UNL1        0.0935
     21 C           6.0679   39.9263    6.1408 C.3     1  UNL1        0.0233
     22 N          14.9595   41.3457    7.7369 N.pl3   1  UNL1       -0.2966
     23 H          15.6120   40.6877    7.4045 H       1  UNL1        0.1537
     24 C          14.9362   42.6129    7.0666 C.ar    1  UNL1        0.1516
     25 C          15.9515   44.6840    6.5123 C.ar    1  UNL1        0.1210
     26 C          14.8304   45.0328    5.7580 C.ar    1  UNL1        0.1196
     27 C          13.8161   42.9654    6.3106 C.ar    1  UNL1        0.1332
     28 N          15.9796   43.4838    7.1493 N.ar    1  UNL1       -0.2258
     29 N          13.7873   44.1659    5.6735 N.ar    1  UNL1       -0.2378
@<TRIPOS>BOND
     1    18    19    1
     2    19    16    1
     3    20    16    1
     4    20    21    1
     5    14    15    1
     6    14    13    1
     7     8    13    1
     8     8     9    1
     9     9    10    1
    10    10    11    1
    11    11    12    1
    12    11     1    1
    13    12    13    1
    14     2     7   ar
    15     3     4   ar
    16     4    22    1
    17     5     1   ar
    18    25    28   ar
    19    26    29   ar
    20    27    24   ar
    21     6     2    1
    22    16    15   am
    23    22    24    1
    24    15    17    2
    25     1     7   ar
    26     2     3   ar
    27     4     5   ar
    28    24    28   ar
    29    25    26   ar
    30    27    29   ar
    31    22    23    1
@<TRIPOS>MOLECULE
MolPort-020-292-448 MCULE-2802633889 PubChem-110264916
 29 31 0 0 0
SMALL
GASTEIGER

@<TRIPOS>ATOM
      1 C          12.4061   39.8058    8.4147 C.ar    1  UNL1        0.0608
      2 C          13.3941   38.2530    9.9165 C.ar    1  UNL1        0.0602
      3 C          14.5984   38.9581    9.8837 C.ar    1  UNL1        0.0294
      4 C          14.7040   40.1125    9.0970 C.ar    1  UNL1        0.0518
      5 C          13.5966   40.5353    8.3582 C.ar    1  UNL1        0.0294
      6 C          13.2743   37.0272   10.7475 C.3     1  UNL1        0.0521
      7 N          12.3317   38.6862    9.1873 N.ar    1  UNL1       -0.2539
      8 C           9.3602   41.4799    6.0375 C.3     1  UNL1        0.0725
      9 C          10.6793   41.2056    5.3171 C.3     1  UNL1        0.0178
     10 C          11.5381   40.2221    6.1164 C.3     1  UNL1        0.0087
     11 C          11.2296   40.2588    7.6170 C.3     1  UNL1        0.0563
     12 C          10.7813   41.6578    8.0511 C.3     1  UNL1        0.0784
     13 N           9.5702   42.1215    7.3455 N.3     1  UNL1       -0.2647
     14 C           8.4177   41.7780    8.1674 C.3     1  UNL1        0.1587
     15 C           8.6399   42.1979    9.5878 C.2     1  UNL1        0.2420
     16 N           7.6997   41.8457   10.6196 N.am    1  UNL1       -0.2784
     17 O           9.6566   42.8899    9.8668 O.2     1  UNL1       -0.2734
     18 C           8.6141   41.2458   12.8016 C.3     1  UNL1        0.0233
     19 C           7.8923   42.3052   11.9887 C.3     1  UNL1        0.0935
     20 C           6.4404   41.1842   10.3025 C.3     1  UNL1        0.0935
     21 C           5.2724   42.1046   10.6048 C.3     1  UNL1        0.0233
     22 N          15.9155   40.8771    9.0218 N.pl3   1  UNL1       -0.2966
     23 H          16.6644   40.5645    9.5792 H       1  UNL1        0.1537
     24 C          16.1589   42.0450    8.2264 C.ar    1  UNL1        0.1516
     25 C          17.5796   43.8018    7.5035 C.ar    1  UNL1        0.1210
     26 C          16.5639   44.2843    6.6769 C.ar    1  UNL1        0.1196
     27 C          15.1449   42.5306    7.3978 C.ar    1  UNL1        0.1332
     28 N          17.3550   42.6948    8.2591 N.ar    1  UNL1       -0.2258
     29 N          15.3689   43.6381    6.6421 N.ar    1  UNL1       -0.2378
@<TRIPOS>BOND
     1    18    19    1
     2    19    16    1
     3    20    16    1
     4    20    21    1
     5    14    15    1
     6    14    13    1
     7     8    13    1
     8     8     9    1
     9     9    10    1
    10    10    11    1
    11    11    12    1
    12    11     1    1
    13    12    13    1
    14     2     7   ar
    15     3     4   ar
    16     4    22    1
    17     5     1   ar
    18    25    28   ar
    19    26    29   ar
    20    27    24   ar
    21     6     2    1
    22    16    15   am
    23    22    24    1
    24    15    17    2
    25     1     7   ar
    26     2     3   ar
    27     4     5   ar
    28    24    28   ar
    29    25    26   ar
    30    27    29   ar
    31    22    23    1
@<TRIPOS>MOLECULE
MolPort-020-292-448 MCULE-2802633889 PubChem-110264916
 29 31 0 0 0
SMALL
GASTEIGER

@<TRIPOS>ATOM
      1 C          10.2836   41.8349    7.5280 C.ar    1  UNL1        0.0608
      2 C          11.0494   40.8142    5.5246 C.ar    1  UNL1        0.0602
      3 C          12.3767   40.9890    5.9200 C.ar    1  UNL1        0.0294
      4 C          12.6586   41.6013    7.1481 C.ar    1  UNL1        0.0518
      5 C          11.6003   42.0263    7.9546 C.ar    1  UNL1        0.0294
      6 C          10.7421   40.1666    4.2231 C.3     1  UNL1        0.0521
      7 N          10.0383   41.2375    6.3285 N.ar    1  UNL1       -0.2539
      8 C           7.3887   43.0088   10.3517 C.3     1  UNL1        0.0725
      9 C           8.7504   43.6884   10.4862 C.3     1  UNL1        0.0178
     10 C           9.5594   43.5395    9.1951 C.3     1  UNL1        0.0087
     11 C           9.1582   42.2983    8.3910 C.3     1  UNL1        0.0563
     12 C           8.6816   41.1748    9.3169 C.3     1  UNL1        0.0784
     13 N           7.5159   41.5580   10.1380 N.3     1  UNL1       -0.2647
     14 C           6.3151   41.1346    9.4306 C.3     1  UNL1        0.1587
     15 C           5.7039   42.2868    8.6941 C.2     1  UNL1        0.2420
     16 N           4.5468   42.9675    9.2138 N.am    1  UNL1       -0.2784
     17 O           6.2050   42.6404    7.5922 O.2     1  UNL1       -0.2734
     18 C           4.9828   44.9927    7.9232 C.3     1  UNL1        0.0233
     19 C           3.9232   44.0505    8.4650 C.3     1  UNL1        0.0935
     20 C           3.8532   42.4833   10.4007 C.3     1  UNL1        0.0935
     21 C           2.6930   41.5896   10.0037 C.3     1  UNL1        0.0233
     22 N          14.0018   41.8099    7.6068 N.pl3   1  UNL1       -0.2966
     23 H          14.2994   41.2466    8.3573 H       1  UNL1        0.1537
     24 C          14.9597   42.7464    7.0955 C.ar    1  UNL1        0.1516
     25 C          17.1709   43.5982    6.9846 C.ar    1  UNL1        0.1210
     26 C          16.7507   44.5741    6.0798 C.ar    1  UNL1        0.1196
     27 C          14.5429   43.7242    6.1897 C.ar    1  UNL1        0.1332
     28 N          16.2677   42.7074    7.4720 N.ar    1  UNL1       -0.2258
     29 N          15.4459   44.6157    5.7021 N.ar    1  UNL1       -0.2378
@<TRIPOS>BOND
     1    18    19    1
     2    19    16    1
     3    20    16    1
     4    20    21    1
     5    14    15    1
     6    14    13    1
     7     8    13    1
     8     8     9    1
     9     9    10    1
    10    10    11    1
    11    11    12    1
    12    11     1    1
    13    12    13    1
    14     2     7   ar
    15     3     4   ar
    16     4    22    1
    17     5     1   ar
    18    25    28   ar
    19    26    29   ar
    20    27    24   ar
    21     6     2    1
    22    16    15   am
    23    22    24    1
    24    15    17    2
    25     1     7   ar
    26     2     3   ar
    27     4     5   ar
    28    24    28   ar
    29    25    26   ar
    30    27    29   ar
    31    22    23    1
@<TRIPOS>MOLECULE
MolPort-020-292-448 MCULE-2802633889 PubChem-110264916
 29 31 0 0 0
SMALL
GASTEIGER

@<TRIPOS>ATOM
      1 C          12.3916   40.0863    8.8105 C.ar    1  UNL1        0.0608
      2 C          13.9276   39.4865   10.5201 C.ar    1  UNL1        0.0602
      3 C          14.9437   40.2030    9.8854 C.ar    1  UNL1        0.0294
      4 C          14.6726   40.8746    8.6863 C.ar    1  UNL1        0.0518
      5 C          13.3850   40.8124    8.1483 C.ar    1  UNL1        0.0294
      6 C          14.2073   38.7706   11.7918 C.3     1  UNL1        0.0521
      7 N          12.6832   39.4419    9.9747 N.ar    1  UNL1       -0.2539
      8 C           8.7038   39.5500    6.8497 C.3     1  UNL1        0.0725
      9 C           9.3024   38.2924    7.4778 C.3     1  UNL1        0.0178
     10 C          10.3707   38.6595    8.5111 C.3     1  UNL1        0.0087
     11 C          11.0205   40.0177    8.2262 C.3     1  UNL1        0.0563
     12 C          11.0528   40.3060    6.7220 C.3     1  UNL1        0.0784
     13 N           9.7100   40.3278    6.1087 N.3     1  UNL1       -0.2647
     14 C           9.2465   41.7087    6.1021 C.3     1  UNL1        0.1587
     15 C           7.7950   41.7788    6.4651 C.2     1  UNL1        0.2420
     16 N           7.3755   42.2904    7.7437 N.am    1  UNL1       -0.2784
     17 O           6.9394   41.3581    5.6397 O.2     1  UNL1       -0.2734
     18 C           5.7026   41.2928    9.2145 C.3     1  UNL1        0.0233
     19 C           5.9662   42.3033    8.1128 C.3     1  UNL1        0.0935
     20 C           8.3448   42.6359    8.7758 C.3     1  UNL1        0.0935
     21 C           8.2099   44.0989    9.1552 C.3     1  UNL1        0.0233
     22 N          15.6760   41.6250    7.9877 N.pl3   1  UNL1       -0.2966
     23 H          16.6020   41.3019    8.0739 H       1  UNL1        0.1537
     24 C          15.4826   42.7925    7.1781 C.ar    1  UNL1        0.1516
     25 C          14.1485   44.1095    5.7243 C.ar    1  UNL1        0.1210
     26 C          15.1726   45.0537    5.6384 C.ar    1  UNL1        0.1196
     27 C          16.5051   43.7397    7.0898 C.ar    1  UNL1        0.1332
     28 N          14.3258   43.0013    6.4908 N.ar    1  UNL1       -0.2258
     29 N          16.3283   44.8482    6.3231 N.ar    1  UNL1       -0.2378
@<TRIPOS>BOND
     1    18    19    1
     2    19    16    1
     3    20    16    1
     4    20    21    1
     5    14    15    1
     6    14    13    1
     7     8    13    1
     8     8     9    1
     9     9    10    1
    10    10    11    1
    11    11    12    1
    12    11     1    1
    13    12    13    1
    14     2     7   ar
    15     3     4   ar
    16     4    22    1
    17     5     1   ar
    18    25    28   ar
    19    26    29   ar
    20    27    24   ar
    21     6     2    1
    22    16    15   am
    23    22    24    1
    24    15    17    2
    25     1     7   ar
    26     2     3   ar
    27     4     5   ar
    28    24    28   ar
    29    25    26   ar
    30    27    29   ar
    31    22    23    1
@<TRIPOS>MOLECULE
MolPort-020-292-448 MCULE-2802633889 PubChem-110264916
 29 31 0 0 0
SMALL
GASTEIGER

@<TRIPOS>ATOM
      1 C          14.7984   41.9273    7.9065 C.ar    1  UNL1        0.0608
      2 C          14.7839   43.7606    6.3961 C.ar    1  UNL1        0.0602
      3 C          13.5934   43.3065    5.8260 C.ar    1  UNL1        0.0294
      4 C          12.9958   42.1357    6.3106 C.ar    1  UNL1        0.0518
      5 C          13.6072   41.4440    7.3588 C.ar    1  UNL1        0.0294
      6 C          15.4246   45.0008    5.8872 C.3     1  UNL1        0.0521
      7 N          15.3582   43.0679    7.4151 N.ar    1  UNL1       -0.2539
      8 C          16.8314   39.5209   10.7007 C.3     1  UNL1        0.0725
      9 C          17.7119   40.1879    9.6452 C.3     1  UNL1        0.0178
     10 C          16.9721   41.3515    8.9801 C.3     1  UNL1        0.0087
     11 C          15.4500   41.1792    9.0208 C.3     1  UNL1        0.0563
     12 C          15.0642   39.6972    8.9827 C.3     1  UNL1        0.0784
     13 N          15.6207   38.9259   10.1120 N.3     1  UNL1       -0.2647
     14 C          14.6168   38.8951   11.1671 C.3     1  UNL1        0.1587
     15 C          13.9444   37.5575   11.2152 C.2     1  UNL1        0.2420
     16 N          12.6599   37.3522   10.5985 N.am    1  UNL1       -0.2784
     17 O          14.5109   36.6123   11.8283 O.2     1  UNL1       -0.2734
     18 C          12.7885   34.9945    9.9807 C.3     1  UNL1        0.0233
     19 C          11.9854   36.0647   10.6975 C.3     1  UNL1        0.0935
     20 C          11.9114   38.4615   10.0211 C.3     1  UNL1        0.0935
     21 C          10.8779   37.9433    9.0382 C.3     1  UNL1        0.0233
     22 N          11.7742   41.6193    5.7637 N.pl3   1  UNL1       -0.2966
     23 H          11.7888   41.3836    4.8080 H       1  UNL1        0.1537
     24 C          10.5343   41.4077    6.4520 C.ar    1  UNL1        0.1516
     25 C           9.1628   41.6447    8.3731 C.ar    1  UNL1        0.1210
     26 C           8.1309   40.9684    7.7210 C.ar    1  UNL1        0.1196
     27 C           9.4992   40.7315    5.8025 C.ar    1  UNL1        0.1332
     28 N          10.3400   41.8489    7.7254 N.ar    1  UNL1       -0.2258
     29 N           8.3216   40.5267    6.4500 N.ar    1  UNL1       -0.2378
@<TRIPOS>BOND
     1    18    19    1
     2    19    16    1
     3    20    16    1
     4    20    21    1
     5    14    15    1
     6    14    13    1
     7     8    13    1
     8     8     9    1
     9     9    10    1
    10    10    11    1
    11    11    12    1
    12    11     1    1
    13    12    13    1
    14     2     7   ar
    15     3     4   ar
    16     4    22    1
    17     5     1   ar
    18    25    28   ar
    19    26    29   ar
    20    27    24   ar
    21     6     2    1
    22    16    15   am
    23    22    24    1
    24    15    17    2
    25     1     7   ar
    26     2     3   ar
    27     4     5   ar
    28    24    28   ar
    29    25    26   ar
    30    27    29   ar
    31    22    23    1
@<TRIPOS>MOLECULE
MolPort-020-292-448 MCULE-2802633889 PubChem-110264916
 29 31 0 0 0
SMALL
GASTEIGER

@<TRIPOS>ATOM
      1 C          13.2282   40.5032    7.9650 C.ar    1  UNL1        0.0608
      2 C          14.1039   42.4379    6.9010 C.ar    1  UNL1        0.0602
      3 C          12.9638   42.5381    6.1018 C.ar    1  UNL1        0.0294
      4 C          11.9354   41.5971    6.2411 C.ar    1  UNL1        0.0518
      5 C          12.0736   40.5732    7.1811 C.ar    1  UNL1        0.0294
      6 C          15.1995   43.4314    6.7586 C.3     1  UNL1        0.0521
      7 N          14.2131   41.4311    7.8078 N.ar    1  UNL1       -0.2539
      8 C          13.1551   37.4700   10.8850 C.3     1  UNL1        0.0725
      9 C          12.1574   37.3032    9.7400 C.3     1  UNL1        0.0178
     10 C          12.5530   38.1760    8.5461 C.3     1  UNL1        0.0087
     11 C          13.3725   39.4024    8.9616 C.3     1  UNL1        0.0563
     12 C          12.9759   39.8785   10.3626 C.3     1  UNL1        0.0784
     13 N          13.1755   38.8483   11.4012 N.3     1  UNL1       -0.2647
     14 C          14.4941   39.0547   11.9847 C.3     1  UNL1        0.1587
     15 C          15.4225   37.9464   11.5934 C.2     1  UNL1        0.2420
     16 N          16.3874   38.1262   10.5403 N.am    1  UNL1       -0.2784
     17 O          15.3315   36.8372   12.1864 O.2     1  UNL1       -0.2734
     18 C          18.4997   36.9872   10.9851 C.3     1  UNL1        0.0233
     19 C          17.2488   37.0267   10.1261 C.3     1  UNL1        0.0935
     20 C          16.4101   39.3397    9.7334 C.3     1  UNL1        0.0935
     21 C          17.6658   40.1407   10.0237 C.3     1  UNL1        0.0233
     22 N          10.7417   41.6474    5.4470 N.pl3   1  UNL1       -0.2966
     23 H          10.7967   42.1593    4.6078 H       1  UNL1        0.1537
     24 C           9.4776   41.0363    5.7375 C.ar    1  UNL1        0.1516
     25 C           7.3950   41.0199    6.8734 C.ar    1  UNL1        0.1210
     26 C           7.0665   39.8124    6.2558 C.ar    1  UNL1        0.1196
     27 C           9.1452   39.8279    5.1211 C.ar    1  UNL1        0.1332
     28 N           8.5915   41.6043    6.6014 N.ar    1  UNL1       -0.2258
     29 N           7.9487   39.2429    5.3931 N.ar    1  UNL1       -0.2378
@<TRIPOS>BOND
     1    18    19    1
     2    19    16    1
     3    20    16    1
     4    20    21    1
     5    14    15    1
     6    14    13    1
     7     8    13    1
     8     8     9    1
     9     9    10    1
    10    10    11    1
    11    11    12    1
    12    11     1    1
    13    12    13    1
    14     2     7   ar
    15     3     4   ar
    16     4    22    1
    17     5     1   ar
    18    25    28   ar
    19    26    29   ar
    20    27    24   ar
    21     6     2    1
    22    16    15   am
    23    22    24    1
    24    15    17    2
    25     1     7   ar
    26     2     3   ar
    27     4     5   ar
    28    24    28   ar
    29    25    26   ar
    30    27    29   ar
    31    22    23    1
