@<TRIPOS>MOLECULE
MolPort-007-723-283 21526237 ChemDiv-E157-4283 MCULE-3761142267 PubChem-46271950 ZINC000021526237 ZINC21526237
 19 20 0 0 0
SMALL
GASTEIGER

@<TRIPOS>ATOM
      1 C          14.7082   43.8228    5.9955 C.ar    1  UNL1        0.1643
      2 C          16.6291   44.2748    6.7143 C.ar    1  UNL1        0.2195
      3 C          17.0425   42.5463    8.2838 C.ar    1  UNL1        0.1879
      4 N          15.1276   44.9595    5.3757 N.ar    1  UNL1       -0.1310
      5 N          16.3531   45.2498    5.8317 N.ar    1  UNL1       -0.1202
      6 N          15.8205   42.4189    7.6929 N.ar    1  UNL1       -0.1400
      7 N          15.6599   43.4099    6.8318 N.ar    1  UNL1       -0.1881
      8 S          17.9227   43.9282    7.7188 S.2     1  UNL1       -0.0111
      9 C          16.8556   40.3946    9.6530 C.2     1  UNL1        0.2276
     10 N          17.5001   41.6152    9.2715 N.am    1  UNL1       -0.2628
     11 O          15.7667   40.0390    9.1298 O.2     1  UNL1       -0.2747
     12 H          18.3408   41.8362    9.7338 H       1  UNL1        0.1568
     13 C          17.4975   39.5168   10.6808 C.3     1  UNL1        0.0854
     14 C          17.0297   38.0618   10.6095 C.3     1  UNL1        0.0091
     15 C          18.1840   37.0870   10.7594 C.3     1  UNL1        0.0005
     16 C          15.9447   37.7640   11.6291 C.3     1  UNL1        0.0005
     17 C          13.3833   43.1623    5.7993 C.3     1  UNL1        0.0677
     18 C          11.9468   41.2147    6.4103 C.3     1  UNL1        0.0005
     19 C          13.2225   41.9712    6.7297 C.3     1  UNL1        0.0080
@<TRIPOS>BOND
     1    18    19    1
     2    19    17    1
     3    17     1    1
     4     2     8   ar
     5     3     8   ar
     6     3    10    1
     7    13     9    1
     8    13    14    1
     9    14    15    1
    10    14    16    1
    11     4     5   ar
    12    10     9   am
    13     7     6   ar
    14     7     1   ar
    15     7     2   ar
    16     1     4   ar
    17     2     5   ar
    18     3     6   ar
    19     9    11    2
    20    10    12    1
@<TRIPOS>MOLECULE
MolPort-007-723-283 21526237 ChemDiv-E157-4283 MCULE-3761142267 PubChem-46271950 ZINC000021526237 ZINC21526237
 19 20 0 0 0
SMALL
GASTEIGER

@<TRIPOS>ATOM
      1 C          15.9629   44.0297    6.1935 C.ar    1  UNL1        0.1643
      2 C          13.9117   43.5790    6.1959 C.ar    1  UNL1        0.2195
      3 C          13.8016   41.5552    7.4265 C.ar    1  UNL1        0.1879
      4 N          15.3227   45.0006    5.4866 N.ar    1  UNL1       -0.1310
      5 N          14.0139   44.7160    5.4872 N.ar    1  UNL1       -0.1202
      6 N          15.0788   42.0200    7.3198 N.ar    1  UNL1       -0.1400
      7 N          15.0641   43.1469    6.6276 N.ar    1  UNL1       -0.1881
      8 S          12.6462   42.5733    6.6314 S.2     1  UNL1       -0.0111
      9 C          14.4003   39.5810    8.9376 C.2     1  UNL1        0.2276
     10 N          13.4998   40.3407    8.1235 N.am    1  UNL1       -0.2628
     11 O          15.5980   39.9368    9.0949 O.2     1  UNL1       -0.2747
     12 H          12.5828   39.9939    8.0340 H       1  UNL1        0.1568
     13 C          13.9034   38.3502    9.6283 C.3     1  UNL1        0.0854
     14 C          13.5208   38.5907   11.0900 C.3     1  UNL1        0.0091
     15 C          14.7384   38.6276   11.9963 C.3     1  UNL1        0.0005
     16 C          12.6919   39.8515   11.2595 C.3     1  UNL1        0.0005
     17 C          17.4369   43.9449    6.4181 C.3     1  UNL1        0.0677
     18 C          17.5464   43.9513    8.9117 C.3     1  UNL1        0.0005
     19 C          17.7552   43.1241    7.6572 C.3     1  UNL1        0.0080
@<TRIPOS>BOND
     1    18    19    1
     2    19    17    1
     3    17     1    1
     4     2     8   ar
     5     3     8   ar
     6     3    10    1
     7    13     9    1
     8    13    14    1
     9    14    15    1
    10    14    16    1
    11     4     5   ar
    12    10     9   am
    13     7     6   ar
    14     7     1   ar
    15     7     2   ar
    16     1     4   ar
    17     2     5   ar
    18     3     6   ar
    19     9    11    2
    20    10    12    1
@<TRIPOS>MOLECULE
MolPort-007-723-283 21526237 ChemDiv-E157-4283 MCULE-3761142267 PubChem-46271950 ZINC000021526237 ZINC21526237
 19 20 0 0 0
SMALL
GASTEIGER

@<TRIPOS>ATOM
      1 C          10.1226   41.0835    7.2460 C.ar    1  UNL1        0.1643
      2 C          11.9233   40.5376    8.1787 C.ar    1  UNL1        0.2195
      3 C          13.5361   41.8787    7.0733 C.ar    1  UNL1        0.1879
      4 N           9.8381   40.1288    8.1731 N.ar    1  UNL1       -0.1310
      5 N          10.9849   39.7792    8.7703 N.ar    1  UNL1       -0.1202
      6 N          12.2766   42.1002    6.6011 N.ar    1  UNL1       -0.1400
      7 N          11.4330   41.3248    7.2617 N.ar    1  UNL1       -0.1881
      8 S          13.5839   40.6864    8.3301 S.2     1  UNL1       -0.0111
      9 C          14.6565   43.8504    5.8915 C.2     1  UNL1        0.2276
     10 N          14.6702   42.5759    6.5444 N.am    1  UNL1       -0.2628
     11 O          13.5811   44.4796    5.7083 O.2     1  UNL1       -0.2747
     12 H          15.5456   42.1354    6.6391 H       1  UNL1        0.1568
     13 C          15.9471   44.4534    5.4335 C.3     1  UNL1        0.0854
     14 C          17.0685   44.3373    6.4678 C.3     1  UNL1        0.0091
     15 C          16.5263   44.1537    7.8740 C.3     1  UNL1        0.0005
     16 C          18.0449   43.2265    6.1238 C.3     1  UNL1        0.0005
     17 C           9.1347   41.7320    6.3328 C.3     1  UNL1        0.0677
     18 C           7.0123   43.0381    6.1938 C.3     1  UNL1        0.0005
     19 C           8.0950   42.5144    7.1184 C.3     1  UNL1        0.0080
@<TRIPOS>BOND
     1    18    19    1
     2    19    17    1
     3    17     1    1
     4     2     8   ar
     5     3     8   ar
     6     3    10    1
     7    13     9    1
     8    13    14    1
     9    14    15    1
    10    14    16    1
    11     4     5   ar
    12    10     9   am
    13     7     6   ar
    14     7     1   ar
    15     7     2   ar
    16     1     4   ar
    17     2     5   ar
    18     3     6   ar
    19     9    11    2
    20    10    12    1
@<TRIPOS>MOLECULE
MolPort-007-723-283 21526237 ChemDiv-E157-4283 MCULE-3761142267 PubChem-46271950 ZINC000021526237 ZINC21526237
 19 20 0 0 0
SMALL
GASTEIGER

@<TRIPOS>ATOM
      1 C          11.1131   39.3929    7.9328 C.ar    1  UNL1        0.1643
      2 C          12.6459   39.6536    9.3445 C.ar    1  UNL1        0.2195
      3 C          14.2329   40.9797    8.1849 C.ar    1  UNL1        0.1879
      4 N          10.7575   38.7214    9.0617 N.ar    1  UNL1       -0.1310
      5 N          11.7331   38.8866    9.9644 N.ar    1  UNL1       -0.1202
      6 N          13.1391   40.7046    7.4190 N.ar    1  UNL1       -0.1400
      7 N          12.2993   39.9681    8.1272 N.ar    1  UNL1       -0.1881
      8 S          14.1406   40.2782    9.7670 S.2     1  UNL1       -0.0111
      9 C          15.2370   43.0666    7.1003 C.2     1  UNL1        0.2276
     10 N          15.3236   41.7617    7.6838 N.am    1  UNL1       -0.2628
     11 O          14.1287   43.6482    6.9609 O.2     1  UNL1       -0.2747
     12 H          16.2213   41.3626    7.7469 H       1  UNL1        0.1568
     13 C          16.4895   43.7589    6.6636 C.3     1  UNL1        0.0854
     14 C          17.6538   43.5727    7.6387 C.3     1  UNL1        0.0091
     15 C          17.3040   44.0489    9.0373 C.3     1  UNL1        0.0005
     16 C          18.1419   42.1353    7.6716 C.3     1  UNL1        0.0005
     17 C          10.3219   39.4489    6.6674 C.3     1  UNL1        0.0677
     18 C          10.5363   40.3123    4.3354 C.3     1  UNL1        0.0005
     19 C          10.7524   40.6237    5.8043 C.3     1  UNL1        0.0080
@<TRIPOS>BOND
     1    18    19    1
     2    19    17    1
     3    17     1    1
     4     2     8   ar
     5     3     8   ar
     6     3    10    1
     7    13     9    1
     8    13    14    1
     9    14    15    1
    10    14    16    1
    11     4     5   ar
    12    10     9   am
    13     7     6   ar
    14     7     1   ar
    15     7     2   ar
    16     1     4   ar
    17     2     5   ar
    18     3     6   ar
    19     9    11    2
    20    10    12    1
@<TRIPOS>MOLECULE
MolPort-007-723-283 21526237 ChemDiv-E157-4283 MCULE-3761142267 PubChem-46271950 ZINC000021526237 ZINC21526237
 19 20 0 0 0
SMALL
GASTEIGER

@<TRIPOS>ATOM
      1 C          11.1379   40.9903    8.1990 C.ar    1  UNL1        0.1643
      2 C          10.5572   42.6720    9.3149 C.ar    1  UNL1        0.2195
      3 C           8.2337   42.3310    9.6422 C.ar    1  UNL1        0.1879
      4 N          12.2390   41.7690    8.3814 N.ar    1  UNL1       -0.1310
      5 N          11.8717   42.8422    9.0937 N.ar    1  UNL1       -0.1202
      6 N           8.8036   41.3187    8.9286 N.ar    1  UNL1       -0.1400
      7 N          10.0940   41.5726    8.7878 N.ar    1  UNL1       -0.1881
      8 S           9.3695   43.5608   10.0907 S.2     1  UNL1       -0.0111
      9 C           6.2209   41.7782   11.1195 C.2     1  UNL1        0.2276
     10 N           6.8353   42.3367    9.9527 N.am    1  UNL1       -0.2628
     11 O           6.9033   41.1915   12.0004 O.2     1  UNL1       -0.2747
     12 H           6.2376   42.7670    9.2995 H       1  UNL1        0.1568
     13 C           4.7417   41.9095   11.3032 C.3     1  UNL1        0.0854
     14 C           3.9447   40.8198   10.5834 C.3     1  UNL1        0.0091
     15 C           3.4322   39.7629   11.5453 C.3     1  UNL1        0.0005
     16 C           2.8015   41.3978    9.7682 C.3     1  UNL1        0.0005
     17 C          11.0951   39.7087    7.4335 C.3     1  UNL1        0.0677
     18 C          11.3935   38.1107    9.3275 C.3     1  UNL1        0.0005
     19 C          10.4453   38.6044    8.2511 C.3     1  UNL1        0.0080
@<TRIPOS>BOND
     1    18    19    1
     2    19    17    1
     3    17     1    1
     4     2     8   ar
     5     3     8   ar
     6     3    10    1
     7    13     9    1
     8    13    14    1
     9    14    15    1
    10    14    16    1
    11     4     5   ar
    12    10     9   am
    13     7     6   ar
    14     7     1   ar
    15     7     2   ar
    16     1     4   ar
    17     2     5   ar
    18     3     6   ar
    19     9    11    2
    20    10    12    1
@<TRIPOS>MOLECULE
MolPort-007-723-283 21526237 ChemDiv-E157-4283 MCULE-3761142267 PubChem-46271950 ZINC000021526237 ZINC21526237
 19 20 0 0 0
SMALL
GASTEIGER

@<TRIPOS>ATOM
      1 C           3.8645   42.9103    9.0948 C.ar    1  UNL1        0.1643
      2 C           5.4117   44.0591    8.2599 C.ar    1  UNL1        0.2195
      3 C           7.2414   42.5519    8.2101 C.ar    1  UNL1        0.1879
      4 N           3.3740   44.1568    8.8544 N.ar    1  UNL1       -0.1310
      5 N           4.3587   44.8916    8.3210 N.ar    1  UNL1       -0.1202
      6 N           6.1180   41.9756    8.7244 N.ar    1  UNL1       -0.1400
      7 N           5.1422   42.8684    8.7189 N.ar    1  UNL1       -0.1881
      8 S           7.0005   44.2062    7.7531 S.2     1  UNL1       -0.0111
      9 C           9.2078   41.5927    6.8862 C.2     1  UNL1        0.2276
     10 N           8.4710   41.8266    8.0918 N.am    1  UNL1       -0.2628
     11 O           8.7949   42.0173    5.7749 O.2     1  UNL1       -0.2747
     12 H           8.8467   41.4520    8.9211 H       1  UNL1        0.1568
     13 C          10.5017   40.8440    6.9515 C.3     1  UNL1        0.0854
     14 C          10.4391   39.4705    6.2803 C.3     1  UNL1        0.0091
     15 C           9.1037   38.7863    6.5121 C.3     1  UNL1        0.0005
     16 C          10.7467   39.5500    4.7956 C.3     1  UNL1        0.0005
     17 C           3.1072   41.7809    9.7121 C.3     1  UNL1        0.0677
     18 C           4.0571   40.2530   11.4422 C.3     1  UNL1        0.0005
     19 C           3.4610   41.6236   11.1820 C.3     1  UNL1        0.0080
@<TRIPOS>BOND
     1    18    19    1
     2    19    17    1
     3    17     1    1
     4     2     8   ar
     5     3     8   ar
     6     3    10    1
     7    13     9    1
     8    13    14    1
     9    14    15    1
    10    14    16    1
    11     4     5   ar
    12    10     9   am
    13     7     6   ar
    14     7     1   ar
    15     7     2   ar
    16     1     4   ar
    17     2     5   ar
    18     3     6   ar
    19     9    11    2
    20    10    12    1
@<TRIPOS>MOLECULE
MolPort-007-723-283 21526237 ChemDiv-E157-4283 MCULE-3761142267 PubChem-46271950 ZINC000021526237 ZINC21526237
 19 20 0 0 0
SMALL
GASTEIGER

@<TRIPOS>ATOM
      1 C           4.1360   42.8978    9.3243 C.ar    1  UNL1        0.1643
      2 C           5.9588   43.7047    8.6636 C.ar    1  UNL1        0.2195
      3 C           7.5067   41.9554    9.0707 C.ar    1  UNL1        0.1879
      4 N           3.8963   44.1641    8.8872 N.ar    1  UNL1       -0.1310
      5 N           5.0573   44.6811    8.4643 N.ar    1  UNL1       -0.1202
      6 N           6.2391   41.6118    9.4362 N.ar    1  UNL1       -0.1400
      7 N           5.4329   42.6284    9.1792 N.ar    1  UNL1       -0.1881
      8 S           7.6097   43.5607    8.4257 S.2     1  UNL1       -0.0111
      9 C           9.7026   41.2024   10.1434 C.2     1  UNL1        0.2276
     10 N           8.6066   41.0522    9.2340 N.am    1  UNL1       -0.2628
     11 O           9.7937   42.2070   10.8972 O.2     1  UNL1       -0.2747
     12 H           8.6092   40.2489    8.6649 H       1  UNL1        0.1568
     13 C          10.7505   40.1364   10.2109 C.3     1  UNL1        0.0854
     14 C          12.1670   40.6914   10.3735 C.3     1  UNL1        0.0091
     15 C          13.0856   39.7056   11.0730 C.3     1  UNL1        0.0005
     16 C          12.7624   41.1249    9.0457 C.3     1  UNL1        0.0005
     17 C           3.1199   41.9706    9.9057 C.3     1  UNL1        0.0677
     18 C           3.8403   40.3029   11.6174 C.3     1  UNL1        0.0005
     19 C           3.3810   41.7298   11.3836 C.3     1  UNL1        0.0080
@<TRIPOS>BOND
     1    18    19    1
     2    19    17    1
     3    17     1    1
     4     2     8   ar
     5     3     8   ar
     6     3    10    1
     7    13     9    1
     8    13    14    1
     9    14    15    1
    10    14    16    1
    11     4     5   ar
    12    10     9   am
    13     7     6   ar
    14     7     1   ar
    15     7     2   ar
    16     1     4   ar
    17     2     5   ar
    18     3     6   ar
    19     9    11    2
    20    10    12    1
@<TRIPOS>MOLECULE
MolPort-007-723-283 21526237 ChemDiv-E157-4283 MCULE-3761142267 PubChem-46271950 ZINC000021526237 ZINC21526237
 19 20 0 0 0
SMALL
GASTEIGER

@<TRIPOS>ATOM
      1 C          10.1277   40.9237    7.5538 C.ar    1  UNL1        0.1643
      2 C           8.6517   41.8293    6.3656 C.ar    1  UNL1        0.2195
      3 C           6.7114   41.7078    7.7229 C.ar    1  UNL1        0.1879
      4 N          10.7057   41.2851    6.3759 N.ar    1  UNL1       -0.1310
      5 N           9.7665   41.8638    5.6162 N.ar    1  UNL1       -0.1202
      6 N           7.8004   41.1651    8.3378 N.ar    1  UNL1       -0.1400
      7 N           8.8412   41.2698    7.5284 N.ar    1  UNL1       -0.1881
      8 S           7.0662   42.3169    6.1397 S.2     1  UNL1       -0.0111
      9 C           4.8016   42.8753    8.9596 C.2     1  UNL1        0.2276
     10 N           5.4272   41.7367    8.3571 N.am    1  UNL1       -0.2628
     11 O           5.3762   43.9953    8.9934 O.2     1  UNL1       -0.2747
     12 H           4.9251   40.8902    8.3810 H       1  UNL1        0.1568
     13 C           3.4317   42.7348    9.5449 C.3     1  UNL1        0.0854
     14 C           3.3826   41.7896   10.7470 C.3     1  UNL1        0.0091
     15 C           4.7326   41.6723   11.4318 C.3     1  UNL1        0.0005
     16 C           2.3124   42.1955   11.7446 C.3     1  UNL1        0.0005
     17 C          10.8122   40.2214    8.6800 C.3     1  UNL1        0.0677
     18 C          12.7707   40.3344   10.2233 C.3     1  UNL1        0.0005
     19 C          11.8042   41.1396    9.3752 C.3     1  UNL1        0.0080
@<TRIPOS>BOND
     1    18    19    1
     2    19    17    1
     3    17     1    1
     4     2     8   ar
     5     3     8   ar
     6     3    10    1
     7    13     9    1
     8    13    14    1
     9    14    15    1
    10    14    16    1
    11     4     5   ar
    12    10     9   am
    13     7     6   ar
    14     7     1   ar
    15     7     2   ar
    16     1     4   ar
    17     2     5   ar
    18     3     6   ar
    19     9    11    2
    20    10    12    1
@<TRIPOS>MOLECULE
MolPort-007-723-283 21526237 ChemDiv-E157-4283 MCULE-3761142267 PubChem-46271950 ZINC000021526237 ZINC21526237
 19 20 0 0 0
SMALL
GASTEIGER

@<TRIPOS>ATOM
      1 C           7.3317   42.8845    7.4214 C.ar    1  UNL1        0.1643
      2 C           8.2704   43.8495    9.0333 C.ar    1  UNL1        0.2195
      3 C          10.2353   42.5648    9.3660 C.ar    1  UNL1        0.1879
      4 N           6.5411   43.9251    7.8008 N.ar    1  UNL1       -0.1310
      5 N           7.1378   44.5431    8.8285 N.ar    1  UNL1       -0.1202
      6 N           9.4812   42.0882    8.3351 N.ar    1  UNL1       -0.1400
      7 N           8.4084   42.8509    8.2058 N.ar    1  UNL1       -0.1881
      8 S           9.5350   43.9566   10.1251 S.2     1  UNL1       -0.0111
      9 C          11.6111   40.6367   10.3299 C.2     1  UNL1        0.2276
     10 N          11.4648   41.9380    9.7500 N.am    1  UNL1       -0.2628
     11 O          10.6096   39.9138   10.5751 O.2     1  UNL1       -0.2747
     12 H          12.2907   42.4525    9.6006 H       1  UNL1        0.1568
     13 C          12.9819   40.1198   10.6344 C.3     1  UNL1        0.0854
     14 C          13.8099   39.8293    9.3811 C.3     1  UNL1        0.0091
     15 C          15.2886   40.0910    9.6049 C.3     1  UNL1        0.0005
     16 C          13.5900   38.4162    8.8708 C.3     1  UNL1        0.0005
     17 C           7.0280   41.9142    6.3275 C.3     1  UNL1        0.0677
     18 C           7.3594   39.4406    6.2897 C.3     1  UNL1        0.0005
     19 C           6.5616   40.5821    6.8915 C.3     1  UNL1        0.0080
@<TRIPOS>BOND
     1    18    19    1
     2    19    17    1
     3    17     1    1
     4     2     8   ar
     5     3     8   ar
     6     3    10    1
     7    13     9    1
     8    13    14    1
     9    14    15    1
    10    14    16    1
    11     4     5   ar
    12    10     9   am
    13     7     6   ar
    14     7     1   ar
    15     7     2   ar
    16     1     4   ar
    17     2     5   ar
    18     3     6   ar
    19     9    11    2
    20    10    12    1
@<TRIPOS>MOLECULE
MolPort-007-723-283 21526237 ChemDiv-E157-4283 MCULE-3761142267 PubChem-46271950 ZINC000021526237 ZINC21526237
 19 20 0 0 0
SMALL
GASTEIGER

@<TRIPOS>ATOM
      1 C          16.4781   41.7919    8.5821 C.ar    1  UNL1        0.1643
      2 C          15.1968   40.2045    9.0808 C.ar    1  UNL1        0.2195
      3 C          13.1139   40.8816    8.1724 C.ar    1  UNL1        0.1879
      4 N          17.2029   40.8759    9.2805 N.ar    1  UNL1       -0.1310
      5 N          16.3881   39.8617    9.5993 N.ar    1  UNL1       -0.1202
      6 N          14.0955   41.7988    7.9401 N.ar    1  UNL1       -0.1400
      7 N          15.2240   41.3561    8.4692 N.ar    1  UNL1       -0.1881
      8 S          13.6762   39.5043    9.0615 S.2     1  UNL1       -0.0111
      9 C          10.7307   41.7746    8.4229 C.2     1  UNL1        0.2276
     10 N          11.7709   41.0872    7.7183 N.am    1  UNL1       -0.2628
     11 O          10.9276   42.2614    9.5674 O.2     1  UNL1       -0.2747
     12 H          11.5402   40.7196    6.8347 H       1  UNL1        0.1568
     13 C           9.3893   41.9319    7.7789 C.3     1  UNL1        0.0854
     14 C           8.4061   40.8207    8.1525 C.3     1  UNL1        0.0091
     15 C           7.2316   41.3493    8.9564 C.3     1  UNL1        0.0005
     16 C           7.9178   40.0612    6.9317 C.3     1  UNL1        0.0005
     17 C          16.9926   43.0918    8.0569 C.3     1  UNL1        0.0677
     18 C          17.5793   43.8470    5.7514 C.3     1  UNL1        0.0005
     19 C          16.4629   43.3651    6.6586 C.3     1  UNL1        0.0080
@<TRIPOS>BOND
     1    18    19    1
     2    19    17    1
     3    17     1    1
     4     2     8   ar
     5     3     8   ar
     6     3    10    1
     7    13     9    1
     8    13    14    1
     9    14    15    1
    10    14    16    1
    11     4     5   ar
    12    10     9   am
    13     7     6   ar
    14     7     1   ar
    15     7     2   ar
    16     1     4   ar
    17     2     5   ar
    18     3     6   ar
    19     9    11    2
    20    10    12    1
