@<TRIPOS>MOLECULE
MolPort-006-735-402 ChemDiv-D411-0676 MCULE-3689023940 PubChem-46740345
 35 38 0 0 0
SMALL
GASTEIGER

@<TRIPOS>ATOM
      1 C          11.6412   39.7825    9.0230 C.3     1  UNL1        0.1078
      2 C           8.5127   41.5300   10.1336 C.3     1  UNL1        0.0897
      3 C           9.6829   41.1424    9.2308 C.3     1  UNL1        0.0901
      4 C          11.0295   40.7376   11.1304 C.3     1  UNL1        0.0901
      5 C           9.8678   41.1223   12.0456 C.3     1  UNL1        0.0897
      6 N           9.0214   42.1099   11.3775 N.3     1  UNL1       -0.2703
      7 N          10.5089   40.1301    9.9000 N.3     1  UNL1       -0.2642
      8 C           6.6753   41.5742   11.7178 C.3     1  UNL1        0.0188
      9 C           7.8772   42.3349   12.2441 C.3     1  UNL1        0.0722
     10 C          12.2406   38.4291    9.3290 C.ar    1  UNL1        0.0335
     11 C          13.6324   38.1805    9.2747 C.ar    1  UNL1        0.1699
     12 C          14.1140   36.8841    9.5959 C.ar    1  UNL1        0.1721
     13 C          13.2019   35.8793    9.9564 C.ar    1  UNL1        0.0400
     14 C          11.8348   36.1382   10.0031 C.ar    1  UNL1        0.0030
     15 C          11.3587   37.4080    9.6914 C.ar    1  UNL1        0.0006
     16 C          15.3914   39.9068    9.7511 C.3     1  UNL1        0.2526
     17 O          14.4784   39.2371    8.8939 O.3     1  UNL1       -0.4686
     18 C          16.0337   35.5350    8.7908 C.3     1  UNL1        0.2526
     19 O          15.4842   36.6006    9.5549 O.3     1  UNL1       -0.4684
     20 C          11.3045   39.8927    7.5574 C.ar    1  UNL1        0.0164
     21 C          12.1107   40.5701    6.6508 C.ar    1  UNL1        0.0782
     22 C          10.0970   39.5584    5.6047 C.ar    1  UNL1        0.0082
     23 C          10.1685   39.3134    6.9700 C.ar    1  UNL1        0.0013
     24 S          11.4297   40.4599    5.1143 S.2     1  UNL1       -0.0768
     25 C          13.7582   42.5240    6.5533 C.2     1  UNL1        0.2846
     26 N          13.3342   41.2309    6.9995 N.am    1  UNL1       -0.2731
     27 O          13.0352   43.2150    5.7866 O.2     1  UNL1       -0.2664
     28 H          13.9426   40.7485    7.6048 H       1  UNL1        0.1557
     29 C          15.0536   43.0460    7.0000 C.ar    1  UNL1        0.1988
     30 C          15.9640   42.3703    7.7851 C.ar    1  UNL1        0.0455
     31 C          17.0184   43.2529    7.9425 C.ar    1  UNL1        0.0440
     32 C          16.6809   44.4012    7.2461 C.ar    1  UNL1        0.1798
     33 O          15.5012   44.2380    6.6979 O.2     1  UNL1       -0.4458
     34 C           9.0382   39.0389    4.6976 C.3     1  UNL1        0.0330
     35 C           9.6366   38.6950    3.3479 C.3     1  UNL1        0.0056
@<TRIPOS>BOND
     1     8     9    1
     2     9     6    1
     3     2     6    1
     4     2     3    1
     5     3     7    1
     6     4     7    1
     7     4     5    1
     8     5     6    1
     9     1     7    1
    10     1    20    1
    11     1    10    1
    12    21    26    1
    13    21    24   ar
    14    25    29    1
    15    29    33   ar
    16    30    31   ar
    17    32    33   ar
    18    22    24   ar
    19    34    22    1
    20    34    35    1
    21    23    20   ar
    22    11    17    1
    23    11    12   ar
    24    16    17    1
    25    12    19    1
    26    18    19    1
    27    13    14   ar
    28    15    10   ar
    29    26    25   am
    30    20    21   ar
    31    25    27    2
    32    29    30   ar
    33    31    32   ar
    34    22    23   ar
    35    10    11   ar
    36    12    13   ar
    37    14    15   ar
    38    26    28    1
@<TRIPOS>MOLECULE
MolPort-006-735-402 ChemDiv-D411-0676 MCULE-3689023940 PubChem-46740345
 35 38 0 0 0
SMALL
GASTEIGER

@<TRIPOS>ATOM
      1 C          11.9065   39.6584    8.3628 C.3     1  UNL1        0.1078
      2 C          15.2030   37.9649    8.9455 C.3     1  UNL1        0.0897
      3 C          13.6905   38.1237    8.7979 C.3     1  UNL1        0.0901
      4 C          13.8321   40.3384    9.6108 C.3     1  UNL1        0.0901
      5 C          15.3457   40.1940    9.7633 C.3     1  UNL1        0.0897
      6 N          15.6805   38.7995   10.0490 N.3     1  UNL1       -0.2703
      7 N          13.3689   39.5209    8.4832 N.3     1  UNL1       -0.2642
      8 C          17.5645   37.4331   10.7490 C.3     1  UNL1        0.0188
      9 C          17.1306   38.7107   10.0564 C.3     1  UNL1        0.0722
     10 C          11.3238   40.6889    9.3025 C.ar    1  UNL1        0.0335
     11 C          10.7893   40.3521   10.5687 C.ar    1  UNL1        0.1699
     12 C          10.2786   41.3850   11.3981 C.ar    1  UNL1        0.1721
     13 C          10.3119   42.7135   10.9447 C.ar    1  UNL1        0.0400
     14 C          10.8386   43.0293    9.6953 C.ar    1  UNL1        0.0030
     15 C          11.3424   42.0205    8.8802 C.ar    1  UNL1        0.0006
     16 C          10.5595   37.9034   10.0663 C.3     1  UNL1        0.2526
     17 O          10.7826   38.9971   10.9442 O.3     1  UNL1       -0.4686
     18 C           8.3744   41.2910   12.9852 C.3     1  UNL1        0.2526
     19 O           9.7434   41.0908   12.6577 O.3     1  UNL1       -0.4684
     20 C          11.4555   39.9181    6.9476 C.ar    1  UNL1        0.0164
     21 C          12.1778   40.7094    6.0629 C.ar    1  UNL1        0.0782
     22 C          10.1061   39.7673    5.0665 C.ar    1  UNL1        0.0082
     23 C          10.2870   39.3779    6.3873 C.ar    1  UNL1        0.0013
     24 S          11.3818   40.7492    4.5791 S.2     1  UNL1       -0.0768
     25 C          13.6696   42.7672    6.3490 C.2     1  UNL1        0.2846
     26 N          13.4137   41.3587    6.3889 N.am    1  UNL1       -0.2731
     27 O          12.7674   43.5812    6.0152 O.2     1  UNL1       -0.2664
     28 H          14.1595   40.7796    6.6676 H       1  UNL1        0.1557
     29 C          15.0031   43.2627    6.7041 C.ar    1  UNL1        0.1988
     30 C          15.6026   44.3935    6.1906 C.ar    1  UNL1        0.0455
     31 C          16.8367   44.4532    6.8141 C.ar    1  UNL1        0.0440
     32 C          16.9056   43.3602    7.6614 C.ar    1  UNL1        0.1798
     33 O          15.7921   42.6746    7.5668 O.2     1  UNL1       -0.4458
     34 C           8.9888   39.3230    4.1900 C.3     1  UNL1        0.0330
     35 C           9.5239   38.4480    3.0736 C.3     1  UNL1        0.0056
@<TRIPOS>BOND
     1     8     9    1
     2     9     6    1
     3     2     6    1
     4     2     3    1
     5     3     7    1
     6     4     7    1
     7     4     5    1
     8     5     6    1
     9     1     7    1
    10     1    20    1
    11     1    10    1
    12    21    26    1
    13    21    24   ar
    14    25    29    1
    15    29    33   ar
    16    30    31   ar
    17    32    33   ar
    18    22    24   ar
    19    34    22    1
    20    34    35    1
    21    23    20   ar
    22    11    17    1
    23    11    12   ar
    24    16    17    1
    25    12    19    1
    26    18    19    1
    27    13    14   ar
    28    15    10   ar
    29    26    25   am
    30    20    21   ar
    31    25    27    2
    32    29    30   ar
    33    31    32   ar
    34    22    23   ar
    35    10    11   ar
    36    12    13   ar
    37    14    15   ar
    38    26    28    1
@<TRIPOS>MOLECULE
MolPort-006-735-402 ChemDiv-D411-0676 MCULE-3689023940 PubChem-46740345
 35 38 0 0 0
SMALL
GASTEIGER

@<TRIPOS>ATOM
      1 C          11.7829   41.2624    9.3542 C.3     1  UNL1        0.1078
      2 C           8.9911   41.0715   11.8530 C.3     1  UNL1        0.0897
      3 C          10.2023   40.6263   11.0349 C.3     1  UNL1        0.0901
      4 C           9.5083   41.9979    9.2396 C.3     1  UNL1        0.0901
      5 C           8.2927   42.4523   10.0464 C.3     1  UNL1        0.0897
      6 N           7.8783   41.3843   10.9552 N.3     1  UNL1       -0.2703
      7 N          10.6265   41.7160   10.1475 N.3     1  UNL1       -0.2642
      8 C           5.4693   41.4107   11.2758 C.3     1  UNL1        0.0188
      9 C           6.8065   41.9243   11.7740 C.3     1  UNL1        0.0722
     10 C          12.4372   40.0181    9.9092 C.ar    1  UNL1        0.0335
     11 C          12.0627   38.7143    9.5069 C.ar    1  UNL1        0.1699
     12 C          12.7421   37.5992   10.0642 C.ar    1  UNL1        0.1721
     13 C          13.7655   37.8132   11.0016 C.ar    1  UNL1        0.0400
     14 C          14.1213   39.1019   11.3896 C.ar    1  UNL1        0.0030
     15 C          13.4596   40.1977   10.8442 C.ar    1  UNL1        0.0006
     16 C           9.9146   37.7020    8.6930 C.3     1  UNL1        0.2526
     17 O          11.0206   38.5846    8.5719 O.3     1  UNL1       -0.4686
     18 C          13.2899   35.1923    9.8175 C.3     1  UNL1        0.2526
     19 O          12.4007   36.2943    9.6897 O.3     1  UNL1       -0.4684
     20 C          11.4583   41.0824    7.8928 C.ar    1  UNL1        0.0164
     21 C          12.3965   41.2756    6.8862 C.ar    1  UNL1        0.0782
     22 C          10.1675   40.5912    6.0287 C.ar    1  UNL1        0.0082
     23 C          10.1986   40.6891    7.4138 C.ar    1  UNL1        0.0013
     24 S          11.6806   40.9616    5.3943 S.2     1  UNL1       -0.0768
     25 C          14.3294   42.9504    6.8663 C.2     1  UNL1        0.2846
     26 N          13.7575   41.6619    7.1182 N.am    1  UNL1       -0.2731
     27 O          13.6296   43.8922    6.4065 O.2     1  UNL1       -0.2664
     28 H          14.3577   40.9740    7.4867 H       1  UNL1        0.1557
     29 C          15.7509   43.1706    7.1510 C.ar    1  UNL1        0.1988
     30 C          16.4964   44.2512    6.7286 C.ar    1  UNL1        0.0455
     31 C          17.7650   44.0239    7.2331 C.ar    1  UNL1        0.0440
     32 C          17.7071   42.8262    7.9255 C.ar    1  UNL1        0.1798
     33 O          16.4883   42.3484    7.8529 O.2     1  UNL1       -0.4458
     34 C           8.9916   40.1528    5.2293 C.3     1  UNL1        0.0330
     35 C           7.8544   39.7634    6.1530 C.3     1  UNL1        0.0056
@<TRIPOS>BOND
     1     8     9    1
     2     9     6    1
     3     2     6    1
     4     2     3    1
     5     3     7    1
     6     4     7    1
     7     4     5    1
     8     5     6    1
     9     1     7    1
    10     1    20    1
    11     1    10    1
    12    21    26    1
    13    21    24   ar
    14    25    29    1
    15    29    33   ar
    16    30    31   ar
    17    32    33   ar
    18    22    24   ar
    19    34    22    1
    20    34    35    1
    21    23    20   ar
    22    11    17    1
    23    11    12   ar
    24    16    17    1
    25    12    19    1
    26    18    19    1
    27    13    14   ar
    28    15    10   ar
    29    26    25   am
    30    20    21   ar
    31    25    27    2
    32    29    30   ar
    33    31    32   ar
    34    22    23   ar
    35    10    11   ar
    36    12    13   ar
    37    14    15   ar
    38    26    28    1
@<TRIPOS>MOLECULE
MolPort-006-735-402 ChemDiv-D411-0676 MCULE-3689023940 PubChem-46740345
 35 38 0 0 0
SMALL
GASTEIGER

@<TRIPOS>ATOM
      1 C          12.6364   41.1320    8.0672 C.3     1  UNL1        0.1078
      2 C          13.7181   37.7475    9.2713 C.3     1  UNL1        0.0897
      3 C          12.9859   38.7925    8.4309 C.3     1  UNL1        0.0901
      4 C          12.9480   40.2677   10.2770 C.3     1  UNL1        0.0901
      5 C          13.6804   39.2322   11.1294 C.3     1  UNL1        0.0897
      6 N          13.3316   37.8864   10.6762 N.3     1  UNL1       -0.2703
      7 N          13.3656   40.1388    8.8759 N.3     1  UNL1       -0.2642
      8 C          15.4338   37.6487   11.8725 C.3     1  UNL1        0.0188
      9 C          14.1526   36.9622   11.4393 C.3     1  UNL1        0.0722
     10 C          13.5473   42.0720    7.3114 C.ar    1  UNL1        0.0335
     11 C          14.9319   42.1769    7.5836 C.ar    1  UNL1        0.1699
     12 C          15.7199   43.0719    6.8130 C.ar    1  UNL1        0.1721
     13 C          15.1101   43.8332    5.8030 C.ar    1  UNL1        0.0400
     14 C          13.7460   43.7210    5.5483 C.ar    1  UNL1        0.0030
     15 C          12.9704   42.8434    6.2995 C.ar    1  UNL1        0.0006
     16 C          16.8323   41.3428    8.9956 C.3     1  UNL1        0.2526
     17 O          15.4638   41.3882    8.6190 O.3     1  UNL1       -0.4686
     18 C          17.9849   43.8230    6.1353 C.3     1  UNL1        0.2526
     19 O          17.0930   43.2019    7.0519 O.3     1  UNL1       -0.4684
     20 C          11.6309   40.5057    7.1342 C.ar    1  UNL1        0.0164
     21 C          10.3548   40.1383    7.5431 C.ar    1  UNL1        0.0782
     22 C          10.7835   39.6774    5.1397 C.ar    1  UNL1        0.0082
     23 C          11.8760   40.2535    5.7751 C.ar    1  UNL1        0.0013
     24 S           9.5154   39.4989    6.2303 S.2     1  UNL1       -0.0768
     25 C           9.3661   41.5263    9.4503 C.2     1  UNL1        0.2846
     26 N           9.8567   40.3094    8.8765 N.am    1  UNL1       -0.2731
     27 O           9.3262   42.5911    8.7773 O.2     1  UNL1       -0.2664
     28 H           9.8513   39.5122    9.4542 H       1  UNL1        0.1557
     29 C           8.9039   41.5261   10.8418 C.ar    1  UNL1        0.1988
     30 C           9.6404   41.1137   11.9324 C.ar    1  UNL1        0.0455
     31 C           8.7982   41.2939   13.0159 C.ar    1  UNL1        0.0440
     32 C           7.6114   41.8014   12.5148 C.ar    1  UNL1        0.1798
     33 O           7.7145   41.9254   11.2136 O.2     1  UNL1       -0.4458
     34 C          10.7184   39.3364    3.6929 C.3     1  UNL1        0.0330
     35 C          10.0885   37.9694    3.5116 C.3     1  UNL1        0.0056
@<TRIPOS>BOND
     1     8     9    1
     2     9     6    1
     3     2     6    1
     4     2     3    1
     5     3     7    1
     6     4     7    1
     7     4     5    1
     8     5     6    1
     9     1     7    1
    10     1    20    1
    11     1    10    1
    12    21    26    1
    13    21    24   ar
    14    25    29    1
    15    29    33   ar
    16    30    31   ar
    17    32    33   ar
    18    22    24   ar
    19    34    22    1
    20    34    35    1
    21    23    20   ar
    22    11    17    1
    23    11    12   ar
    24    16    17    1
    25    12    19    1
    26    18    19    1
    27    13    14   ar
    28    15    10   ar
    29    26    25   am
    30    20    21   ar
    31    25    27    2
    32    29    30   ar
    33    31    32   ar
    34    22    23   ar
    35    10    11   ar
    36    12    13   ar
    37    14    15   ar
    38    26    28    1
@<TRIPOS>MOLECULE
MolPort-006-735-402 ChemDiv-D411-0676 MCULE-3689023940 PubChem-46740345
 35 38 0 0 0
SMALL
GASTEIGER

@<TRIPOS>ATOM
      1 C           9.9338   41.9836    7.9725 C.3     1  UNL1        0.1078
      2 C           6.5868   43.1620    6.7545 C.3     1  UNL1        0.0897
      3 C           8.0188   42.6329    6.6924 C.3     1  UNL1        0.0901
      4 C           8.5510   43.8069    8.6733 C.3     1  UNL1        0.0901
      5 C           7.1221   44.3434    8.7485 C.3     1  UNL1        0.0897
      6 N           6.5748   44.4761    7.3990 N.3     1  UNL1       -0.2703
      7 N           8.5473   42.4768    8.0529 N.3     1  UNL1       -0.2642
      8 C           4.4937   43.9466    8.5372 C.3     1  UNL1        0.0188
      9 C           5.1836   44.8668    7.5485 C.3     1  UNL1        0.0722
     10 C          10.4377   41.4024    9.2735 C.ar    1  UNL1        0.0335
     11 C          11.4409   40.4059    9.3269 C.ar    1  UNL1        0.1699
     12 C          11.8706   39.9277   10.5927 C.ar    1  UNL1        0.1721
     13 C          11.2909   40.4496   11.7602 C.ar    1  UNL1        0.0400
     14 C          10.3030   41.4281   11.6919 C.ar    1  UNL1        0.0030
     15 C           9.8805   41.9014   10.4535 C.ar    1  UNL1        0.0006
     16 C          12.6081   38.6752    7.9329 C.3     1  UNL1        0.2526
     17 O          11.9628   39.9275    8.1121 O.3     1  UNL1       -0.4686
     18 C          14.0674   39.1230   11.4176 C.3     1  UNL1        0.2526
     19 O          12.8618   38.9436   10.6856 O.3     1  UNL1       -0.4684
     20 C          10.1463   41.0100    6.8408 C.ar    1  UNL1        0.0164
     21 C          11.1421   41.1748    5.8859 C.ar    1  UNL1        0.0782
     22 C           9.7858   39.1219    5.5419 C.ar    1  UNL1        0.0082
     23 C           9.3811   39.8477    6.6547 C.ar    1  UNL1        0.0013
     24 S          11.0888   39.8864    4.8024 S.2     1  UNL1       -0.0768
     25 C          13.3990   42.2673    6.3904 C.2     1  UNL1        0.2846
     26 N          12.0658   42.2711    5.8675 N.am    1  UNL1       -0.2731
     27 O          13.8835   41.2337    6.9244 O.2     1  UNL1       -0.2664
     28 H          11.7530   43.1085    5.4550 H       1  UNL1        0.1557
     29 C          14.2071   43.4874    6.2990 C.ar    1  UNL1        0.1988
     30 C          15.4658   43.6589    6.8358 C.ar    1  UNL1        0.0455
     31 C          15.8204   44.9534    6.4980 C.ar    1  UNL1        0.0440
     32 C          14.7591   45.4806    5.7817 C.ar    1  UNL1        0.1798
     33 O          13.8163   44.5747    5.6847 O.2     1  UNL1       -0.4458
     34 C           9.2018   37.8232    5.1101 C.3     1  UNL1        0.0330
     35 C           9.6982   37.4690    3.7222 C.3     1  UNL1        0.0056
@<TRIPOS>BOND
     1     8     9    1
     2     9     6    1
     3     2     6    1
     4     2     3    1
     5     3     7    1
     6     4     7    1
     7     4     5    1
     8     5     6    1
     9     1     7    1
    10     1    20    1
    11     1    10    1
    12    21    26    1
    13    21    24   ar
    14    25    29    1
    15    29    33   ar
    16    30    31   ar
    17    32    33   ar
    18    22    24   ar
    19    34    22    1
    20    34    35    1
    21    23    20   ar
    22    11    17    1
    23    11    12   ar
    24    16    17    1
    25    12    19    1
    26    18    19    1
    27    13    14   ar
    28    15    10   ar
    29    26    25   am
    30    20    21   ar
    31    25    27    2
    32    29    30   ar
    33    31    32   ar
    34    22    23   ar
    35    10    11   ar
    36    12    13   ar
    37    14    15   ar
    38    26    28    1
@<TRIPOS>MOLECULE
MolPort-006-735-402 ChemDiv-D411-0676 MCULE-3689023940 PubChem-46740345
 35 38 0 0 0
SMALL
GASTEIGER

@<TRIPOS>ATOM
      1 C          12.9029   40.3362    7.2497 C.3     1  UNL1        0.1078
      2 C           9.5823   41.6836    6.1394 C.3     1  UNL1        0.0897
      3 C          10.9789   41.6722    6.7591 C.3     1  UNL1        0.0901
      4 C          10.7009   39.4067    7.3724 C.3     1  UNL1        0.0901
      5 C           9.3026   39.4034    6.7562 C.3     1  UNL1        0.0897
      6 N           8.7193   40.7408    6.8526 N.3     1  UNL1       -0.2703
      7 N          11.5653   40.3327    6.6310 N.3     1  UNL1       -0.2642
      8 C           6.7743   39.3622    6.3800 C.3     1  UNL1        0.0188
      9 C           7.4533   40.6972    6.1413 C.3     1  UNL1        0.0722
     10 C          13.6458   41.6387    7.0596 C.ar    1  UNL1        0.0335
     11 C          14.8990   41.8982    7.6631 C.ar    1  UNL1        0.1699
     12 C          15.5383   43.1416    7.4168 C.ar    1  UNL1        0.1721
     13 C          14.9143   44.0852    6.5850 C.ar    1  UNL1        0.0400
     14 C          13.6799   43.8167    6.0000 C.ar    1  UNL1        0.0030
     15 C          13.0508   42.5984    6.2368 C.ar    1  UNL1        0.0006
     16 C          16.6274   41.0521    9.2749 C.3     1  UNL1        0.2526
     17 O          15.4518   40.9058    8.4917 O.3     1  UNL1       -0.4686
     18 C          17.8513   44.0270    7.2736 C.3     1  UNL1        0.2526
     19 O          16.7793   43.4337    7.9950 O.3     1  UNL1       -0.4684
     20 C          12.8770   39.9500    8.7070 C.ar    1  UNL1        0.0164
     21 C          12.0507   40.5732    9.6341 C.ar    1  UNL1        0.0782
     22 C          13.4426   38.7674   10.6212 C.ar    1  UNL1        0.0082
     23 C          13.6610   38.9242    9.2585 C.ar    1  UNL1        0.0013
     24 S          12.2787   39.8632   11.1444 S.2     1  UNL1       -0.0768
     25 C           9.9985   42.0332   10.0799 C.2     1  UNL1        0.2846
     26 N          11.1436   41.6370    9.3165 N.am    1  UNL1       -0.2731
     27 O           9.6993   41.4449   11.1535 O.2     1  UNL1       -0.2664
     28 H          11.3257   42.1448    8.4930 H       1  UNL1        0.1557
     29 C           9.1668   43.1412    9.5998 C.ar    1  UNL1        0.1988
     30 C           9.2777   44.4580    9.9945 C.ar    1  UNL1        0.0455
     31 C           8.2951   45.1239    9.2828 C.ar    1  UNL1        0.0440
     32 C           7.6550   44.1727    8.5063 C.ar    1  UNL1        0.1798
     33 O           8.2044   43.0024    8.7240 O.2     1  UNL1       -0.4458
     34 C          14.0878   37.7352   11.4768 C.3     1  UNL1        0.0330
     35 C          13.5545   36.3615   11.1210 C.3     1  UNL1        0.0056
@<TRIPOS>BOND
     1     8     9    1
     2     9     6    1
     3     2     6    1
     4     2     3    1
     5     3     7    1
     6     4     7    1
     7     4     5    1
     8     5     6    1
     9     1     7    1
    10     1    20    1
    11     1    10    1
    12    21    26    1
    13    21    24   ar
    14    25    29    1
    15    29    33   ar
    16    30    31   ar
    17    32    33   ar
    18    22    24   ar
    19    34    22    1
    20    34    35    1
    21    23    20   ar
    22    11    17    1
    23    11    12   ar
    24    16    17    1
    25    12    19    1
    26    18    19    1
    27    13    14   ar
    28    15    10   ar
    29    26    25   am
    30    20    21   ar
    31    25    27    2
    32    29    30   ar
    33    31    32   ar
    34    22    23   ar
    35    10    11   ar
    36    12    13   ar
    37    14    15   ar
    38    26    28    1
@<TRIPOS>MOLECULE
MolPort-006-735-402 ChemDiv-D411-0676 MCULE-3689023940 PubChem-46740345
 35 38 0 0 0
SMALL
GASTEIGER

@<TRIPOS>ATOM
      1 C          14.6620   40.7553    9.5076 C.3     1  UNL1        0.1078
      2 C          16.7730   37.9798   10.8913 C.3     1  UNL1        0.0897
      3 C          15.6596   39.0241   10.8247 C.3     1  UNL1        0.0901
      4 C          17.0315   40.4193    9.4991 C.3     1  UNL1        0.0901
      5 C          18.1538   39.3837    9.5568 C.3     1  UNL1        0.0897
      6 N          18.0756   38.6431   10.8152 N.3     1  UNL1       -0.2703
      7 N          15.7307   39.7412    9.5459 N.3     1  UNL1       -0.2642
      8 C          19.3401   37.2210    9.3035 C.3     1  UNL1        0.0188
      9 C          19.0841   37.5994   10.7497 C.3     1  UNL1        0.0722
     10 C          14.6857   41.6013    8.2553 C.ar    1  UNL1        0.0335
     11 C          15.7327   42.5080    7.9660 C.ar    1  UNL1        0.1699
     12 C          15.6867   43.2510    6.7571 C.ar    1  UNL1        0.1721
     13 C          14.6056   43.0730    5.8789 C.ar    1  UNL1        0.0400
     14 C          13.5814   42.1790    6.1783 C.ar    1  UNL1        0.0030
     15 C          13.6236   41.4470    7.3608 C.ar    1  UNL1        0.0006
     16 C          17.4719   43.8383    9.1936 C.3     1  UNL1        0.2526
     17 O          16.7738   42.6363    8.9024 O.3     1  UNL1       -0.4686
     18 C          17.7717   43.8422    5.5498 C.3     1  UNL1        0.2526
     19 O          16.7050   44.1563    6.4357 O.3     1  UNL1       -0.4684
     20 C          13.2893   40.1706    9.7250 C.ar    1  UNL1        0.0164
     21 C          12.9547   38.8778    9.3411 C.ar    1  UNL1        0.0782
     22 C          11.0794   40.0930   10.4269 C.ar    1  UNL1        0.0082
     23 C          12.2348   40.8594   10.3451 C.ar    1  UNL1        0.0013
     24 S          11.3535   38.5714    9.7644 S.2     1  UNL1       -0.0768
     25 C          14.0845   36.5997    9.0663 C.2     1  UNL1        0.2846
     26 N          13.8611   37.9673    8.7049 N.am    1  UNL1       -0.2731
     27 O          13.4527   36.0688   10.0187 O.2     1  UNL1       -0.2664
     28 H          14.3809   38.3165    7.9452 H       1  UNL1        0.1557
     29 C          15.0637   35.8109    8.3120 C.ar    1  UNL1        0.1988
     30 C          15.3474   34.4766    8.5147 C.ar    1  UNL1        0.0455
     31 C          16.3225   34.1768    7.5793 C.ar    1  UNL1        0.0440
     32 C          16.5659   35.3428    6.8734 C.ar    1  UNL1        0.1798
     33 O          15.7950   36.2948    7.3406 O.2     1  UNL1       -0.4458
     34 C           9.8099   40.5268   11.0704 C.3     1  UNL1        0.0330
     35 C          10.1117   41.3215   12.3256 C.3     1  UNL1        0.0056
@<TRIPOS>BOND
     1     8     9    1
     2     9     6    1
     3     2     6    1
     4     2     3    1
     5     3     7    1
     6     4     7    1
     7     4     5    1
     8     5     6    1
     9     1     7    1
    10     1    20    1
    11     1    10    1
    12    21    26    1
    13    21    24   ar
    14    25    29    1
    15    29    33   ar
    16    30    31   ar
    17    32    33   ar
    18    22    24   ar
    19    34    22    1
    20    34    35    1
    21    23    20   ar
    22    11    17    1
    23    11    12   ar
    24    16    17    1
    25    12    19    1
    26    18    19    1
    27    13    14   ar
    28    15    10   ar
    29    26    25   am
    30    20    21   ar
    31    25    27    2
    32    29    30   ar
    33    31    32   ar
    34    22    23   ar
    35    10    11   ar
    36    12    13   ar
    37    14    15   ar
    38    26    28    1
@<TRIPOS>MOLECULE
MolPort-006-735-402 ChemDiv-D411-0676 MCULE-3689023940 PubChem-46740345
 35 38 0 0 0
SMALL
GASTEIGER

@<TRIPOS>ATOM
      1 C          12.6178   40.4787    9.1938 C.3     1  UNL1        0.1078
      2 C          12.0957   36.7854    9.5956 C.3     1  UNL1        0.0897
      3 C          11.9528   38.2816    9.8705 C.3     1  UNL1        0.0901
      4 C          14.1543   38.6466    9.0922 C.3     1  UNL1        0.0901
      5 C          14.3114   37.1527    8.8120 C.3     1  UNL1        0.0897
      6 N          13.4952   36.3871    9.7533 N.3     1  UNL1       -0.2703
      7 N          12.7533   39.0405    8.9020 N.3     1  UNL1       -0.2642
      8 C          14.9660   34.7179    8.7749 C.3     1  UNL1        0.0188
      9 C          13.5914   34.9938    9.3532 C.3     1  UNL1        0.0722
     10 C          13.1778   41.3647    8.1048 C.ar    1  UNL1        0.0335
     11 C          14.5324   41.7725    8.0734 C.ar    1  UNL1        0.1699
     12 C          14.9812   42.5904    7.0032 C.ar    1  UNL1        0.1721
     13 C          14.0740   42.9782    6.0041 C.ar    1  UNL1        0.0400
     14 C          12.7435   42.5711    6.0498 C.ar    1  UNL1        0.0030
     15 C          12.2998   41.7676    7.0955 C.ar    1  UNL1        0.0006
     16 C          16.7934   41.3988    9.0977 C.3     1  UNL1        0.2526
     17 O          15.3742   41.3506    9.1175 O.3     1  UNL1       -0.4686
     18 C          16.7205   44.1986    6.2667 C.3     1  UNL1        0.2526
     19 O          16.3143   43.0125    6.9372 O.3     1  UNL1       -0.4684
     20 C          11.2029   40.8798    9.5267 C.ar    1  UNL1        0.0164
     21 C          10.1613   40.7864    8.6118 C.ar    1  UNL1        0.0782
     22 C           9.4439   41.6524   10.8271 C.ar    1  UNL1        0.0082
     23 C          10.8015   41.3624   10.7824 C.ar    1  UNL1        0.0013
     24 S           8.7335   41.2979    9.3443 S.2     1  UNL1       -0.0768
     25 C           9.3859   39.4767    6.5562 C.2     1  UNL1        0.2846
     26 N          10.3103   40.3063    7.2691 N.am    1  UNL1       -0.2731
     27 O           8.3084   39.0990    7.0896 O.2     1  UNL1       -0.2664
     28 H          11.1281   40.5731    6.7903 H       1  UNL1        0.1557
     29 C           9.7039   39.0651    5.1853 C.ar    1  UNL1        0.1988
     30 C          10.9688   38.9991    4.6397 C.ar    1  UNL1        0.0455
     31 C          10.7706   38.5665    3.3400 C.ar    1  UNL1        0.0440
     32 C           9.4052   38.3989    3.1822 C.ar    1  UNL1        0.1798
     33 O           8.8036   38.7066    4.3058 O.2     1  UNL1       -0.4458
     34 C           8.7124   42.1353   12.0295 C.3     1  UNL1        0.0330
     35 C           8.9306   41.1796   13.1859 C.3     1  UNL1        0.0056
@<TRIPOS>BOND
     1     8     9    1
     2     9     6    1
     3     2     6    1
     4     2     3    1
     5     3     7    1
     6     4     7    1
     7     4     5    1
     8     5     6    1
     9     1     7    1
    10     1    20    1
    11     1    10    1
    12    21    26    1
    13    21    24   ar
    14    25    29    1
    15    29    33   ar
    16    30    31   ar
    17    32    33   ar
    18    22    24   ar
    19    34    22    1
    20    34    35    1
    21    23    20   ar
    22    11    17    1
    23    11    12   ar
    24    16    17    1
    25    12    19    1
    26    18    19    1
    27    13    14   ar
    28    15    10   ar
    29    26    25   am
    30    20    21   ar
    31    25    27    2
    32    29    30   ar
    33    31    32   ar
    34    22    23   ar
    35    10    11   ar
    36    12    13   ar
    37    14    15   ar
    38    26    28    1
@<TRIPOS>MOLECULE
MolPort-006-735-402 ChemDiv-D411-0676 MCULE-3689023940 PubChem-46740345
 35 38 0 0 0
SMALL
GASTEIGER

@<TRIPOS>ATOM
      1 C          11.1085   42.2072    7.6358 C.3     1  UNL1        0.1078
      2 C           9.2211   40.6584   10.4842 C.3     1  UNL1        0.0897
      3 C           9.7998   40.8174    9.0791 C.3     1  UNL1        0.0901
      4 C           9.6477   43.1682    9.2699 C.3     1  UNL1        0.0901
      5 C           9.0683   43.0243   10.6766 C.3     1  UNL1        0.0897
      6 N           8.3179   41.7731   10.7740 N.3     1  UNL1       -0.2703
      7 N          10.5742   42.0619    9.0016 N.3     1  UNL1       -0.2642
      8 C           9.0565   41.1083   12.9920 C.3     1  UNL1        0.0188
      9 C           7.9049   41.6400   12.1605 C.3     1  UNL1        0.0722
     10 C          12.6190   42.2146    7.5827 C.ar    1  UNL1        0.0335
     11 C          13.4131   41.2966    8.3099 C.ar    1  UNL1        0.1699
     12 C          14.8262   41.3605    8.1885 C.ar    1  UNL1        0.1721
     13 C          15.4036   42.3316    7.3548 C.ar    1  UNL1        0.0400
     14 C          14.6094   43.2298    6.6473 C.ar    1  UNL1        0.0030
     15 C          13.2240   43.1693    6.7615 C.ar    1  UNL1        0.0006
     16 C          13.0504   40.1270   10.5012 C.3     1  UNL1        0.2526
     17 O          12.7584   40.3619    9.1314 O.3     1  UNL1       -0.4686
     18 C          16.8649   40.8564    9.5089 C.3     1  UNL1        0.2526
     19 O          15.6446   40.4682    8.8911 O.3     1  UNL1       -0.4684
     20 C          10.5505   41.1876    6.6753 C.ar    1  UNL1        0.0164
     21 C           9.1865   40.9846    6.5049 C.ar    1  UNL1        0.0782
     22 C          10.5819   39.5219    5.0607 C.ar    1  UNL1        0.0082
     23 C          11.3435   40.3681    5.8564 C.ar    1  UNL1        0.0013
     24 S           8.9455   39.7916    5.3406 S.2     1  UNL1       -0.0768
     25 C           6.9952   42.2964    6.6424 C.2     1  UNL1        0.2846
     26 N           8.1708   41.7089    7.2113 N.am    1  UNL1       -0.2731
     27 O           6.7538   42.2007    5.4092 O.2     1  UNL1       -0.2664
     28 H           8.2935   41.8126    8.1826 H       1  UNL1        0.1557
     29 C           6.0621   43.0177    7.5137 C.ar    1  UNL1        0.1988
     30 C           5.5488   44.2751    7.2743 C.ar    1  UNL1        0.0455
     31 C           4.7271   44.5333    8.3576 C.ar    1  UNL1        0.0440
     32 C           4.7948   43.4212    9.1798 C.ar    1  UNL1        0.1798
     33 O           5.6017   42.5393    8.6413 O.2     1  UNL1       -0.4458
     34 C          11.1299   38.5703    4.0567 C.3     1  UNL1        0.0330
     35 C           9.9982   37.9456    3.2648 C.3     1  UNL1        0.0056
@<TRIPOS>BOND
     1     8     9    1
     2     9     6    1
     3     2     6    1
     4     2     3    1
     5     3     7    1
     6     4     7    1
     7     4     5    1
     8     5     6    1
     9     1     7    1
    10     1    20    1
    11     1    10    1
    12    21    26    1
    13    21    24   ar
    14    25    29    1
    15    29    33   ar
    16    30    31   ar
    17    32    33   ar
    18    22    24   ar
    19    34    22    1
    20    34    35    1
    21    23    20   ar
    22    11    17    1
    23    11    12   ar
    24    16    17    1
    25    12    19    1
    26    18    19    1
    27    13    14   ar
    28    15    10   ar
    29    26    25   am
    30    20    21   ar
    31    25    27    2
    32    29    30   ar
    33    31    32   ar
    34    22    23   ar
    35    10    11   ar
    36    12    13   ar
    37    14    15   ar
    38    26    28    1
@<TRIPOS>MOLECULE
MolPort-006-735-402 ChemDiv-D411-0676 MCULE-3689023940 PubChem-46740345
 35 38 0 0 0
SMALL
GASTEIGER

@<TRIPOS>ATOM
      1 C           8.5561   40.1507    8.5938 C.3     1  UNL1        0.1078
      2 C          10.4166   39.5696    5.3883 C.3     1  UNL1        0.0897
      3 C          10.0812   40.1767    6.7497 C.3     1  UNL1        0.0901
      4 C           7.7785   39.8195    6.3548 C.3     1  UNL1        0.0901
      5 C           8.0991   39.2096    4.9908 C.3     1  UNL1        0.0897
      6 N           9.3167   39.8162    4.4545 N.3     1  UNL1       -0.2703
      7 N           8.8741   39.5402    7.2906 N.3     1  UNL1       -0.2642
      8 C          10.3287   37.8002    3.5500 C.3     1  UNL1        0.0188
      9 C           9.6311   39.1074    3.2260 C.3     1  UNL1        0.0722
     10 C           9.7198   40.1407    9.5583 C.ar    1  UNL1        0.0335
     11 C           9.6705   40.7772   10.8210 C.ar    1  UNL1        0.1699
     12 C          10.8025   40.7033   11.6747 C.ar    1  UNL1        0.1721
     13 C          11.9437   40.0053   11.2481 C.ar    1  UNL1        0.0400
     14 C          11.9784   39.3861   10.0017 C.ar    1  UNL1        0.0030
     15 C          10.8704   39.4539    9.1628 C.ar    1  UNL1        0.0006
     16 C           8.4334   42.8132   11.6119 C.3     1  UNL1        0.2526
     17 O           8.4947   41.4652   11.1691 O.3     1  UNL1       -0.4686
     18 C           9.8773   40.9633   13.9617 C.3     1  UNL1        0.2526
     19 O          10.7906   41.3191   12.9318 O.3     1  UNL1       -0.4684
     20 C           7.9855   41.5407    8.4678 C.ar    1  UNL1        0.0164
     21 C           8.7332   42.6207    8.0149 C.ar    1  UNL1        0.0782
     22 C           6.3850   43.2173    8.5648 C.ar    1  UNL1        0.0082
     23 C           6.6557   41.8712    8.7736 C.ar    1  UNL1        0.0013
     24 S           7.7597   43.9950    7.9865 S.2     1  UNL1       -0.0768
     25 C          11.2385   42.9764    8.3873 C.2     1  UNL1        0.2846
     26 N          10.1096   42.5385    7.6225 N.am    1  UNL1       -0.2731
     27 O          11.0897   43.4841    9.5311 O.2     1  UNL1       -0.2664
     28 H          10.2972   42.1422    6.7411 H       1  UNL1        0.1557
     29 C          12.5847   42.8279    7.8254 C.ar    1  UNL1        0.1988
     30 C          13.4013   41.7271    7.9775 C.ar    1  UNL1        0.0455
     31 C          14.5543   42.0436    7.2804 C.ar    1  UNL1        0.0440
     32 C          14.3633   43.3097    6.7533 C.ar    1  UNL1        0.1798
     33 O          13.1759   43.7434    7.1010 O.2     1  UNL1       -0.4458
     34 C           5.0570   43.8613    8.7543 C.3     1  UNL1        0.0330
     35 C           4.7737   44.8096    7.6060 C.3     1  UNL1        0.0056
@<TRIPOS>BOND
     1     8     9    1
     2     9     6    1
     3     2     6    1
     4     2     3    1
     5     3     7    1
     6     4     7    1
     7     4     5    1
     8     5     6    1
     9     1     7    1
    10     1    20    1
    11     1    10    1
    12    21    26    1
    13    21    24   ar
    14    25    29    1
    15    29    33   ar
    16    30    31   ar
    17    32    33   ar
    18    22    24   ar
    19    34    22    1
    20    34    35    1
    21    23    20   ar
    22    11    17    1
    23    11    12   ar
    24    16    17    1
    25    12    19    1
    26    18    19    1
    27    13    14   ar
    28    15    10   ar
    29    26    25   am
    30    20    21   ar
    31    25    27    2
    32    29    30   ar
    33    31    32   ar
    34    22    23   ar
    35    10    11   ar
    36    12    13   ar
    37    14    15   ar
    38    26    28    1
