@<TRIPOS>MOLECULE
MolPort-002-849-484 8715574 LN01241864 MCULE-7102647929 PubChem-11842440 ZINC000008715574 ZINC08715574
 26 28 0 0 0
SMALL
GASTEIGER

@<TRIPOS>ATOM
      1 C          13.2604   42.5772    7.0823 C.ar    1  UNL1        0.1681
      2 C          11.4741   41.3077    6.5633 C.ar    1  UNL1        0.0923
      3 C          11.0401   41.8267    7.7977 C.ar    1  UNL1        0.0886
      4 N          12.7100   41.7363    6.1812 N.ar    1  UNL1       -0.2237
      5 S          12.2501   42.8419    8.3915 S.2     1  UNL1       -0.0481
      6 C          10.7310   40.3365    5.7304 C.ar    1  UNL1        0.0183
      7 C          10.7977   40.4311    4.3323 C.ar    1  UNL1        0.0015
      8 C          10.1350   39.5015    3.5254 C.ar    1  UNL1        0.0000
      9 C           9.4081   38.4617    4.1102 C.ar    1  UNL1        0.0000
     10 C           9.3481   38.3485    5.5013 C.ar    1  UNL1        0.0000
     11 C          10.0114   39.2786    6.3069 C.ar    1  UNL1        0.0015
     12 C          14.8487   44.2800    6.0716 C.2     1  UNL1        0.4068
     13 O          13.9481   44.7990    5.3561 O.2     1  UNL1       -0.2260
     14 N          14.5497   43.1805    6.9374 N.am    1  UNL1       -0.2298
     15 H          15.2875   42.8110    7.4744 H       1  UNL1        0.1601
     16 O          16.1534   44.7709    6.0296 O.3     1  UNL1       -0.4344
     17 C          17.9279   44.0073    7.4468 C.3     1  UNL1        0.0513
     18 C          17.2810   43.9098    6.0815 C.3     1  UNL1        0.2102
     19 C           9.7030   41.6910    8.4130 C.2     1  UNL1        0.2045
     20 O           9.5292   40.8158    9.3041 O.2     1  UNL1       -0.2859
     21 C           8.5584   42.5278    7.9902 C.ar    1  UNL1        0.0587
     22 C           7.9190   42.2820    6.7674 C.ar    1  UNL1        0.1020
     23 C           6.3743   44.0413    7.1614 C.ar    1  UNL1        0.0989
     24 C           6.9724   44.3194    8.3911 C.ar    1  UNL1        0.0208
     25 C           8.0652   43.5565    8.8040 C.ar    1  UNL1        0.0064
     26 N           6.8547   43.0363    6.3818 N.ar    1  UNL1       -0.2422
@<TRIPOS>BOND
     1    17    18    1
     2    18    16    1
     3    12    16    1
     4    12    14   am
     5     1     5   ar
     6     2     4   ar
     7     2     6    1
     8     3     5   ar
     9     3    19    1
    10    19    21    1
    11    22    26   ar
    12    23    24   ar
    13    25    21   ar
    14     7     8   ar
    15     9    10   ar
    16    11     6   ar
    17    14     1    1
    18    12    13    2
    19     1     4   ar
    20     2     3   ar
    21    19    20    2
    22    21    22   ar
    23    23    26   ar
    24    24    25   ar
    25     6     7   ar
    26     8     9   ar
    27    10    11   ar
    28    14    15    1
@<TRIPOS>MOLECULE
MolPort-002-849-484 8715574 LN01241864 MCULE-7102647929 PubChem-11842440 ZINC000008715574 ZINC08715574
 26 28 0 0 0
SMALL
GASTEIGER

@<TRIPOS>ATOM
      1 C          10.6502   40.4587    7.0207 C.ar    1  UNL1        0.1681
      2 C          12.3834   39.9839    8.3782 C.ar    1  UNL1        0.0923
      3 C          13.0120   40.8940    7.5076 C.ar    1  UNL1        0.0886
      4 N          11.0706   39.7547    8.0929 N.ar    1  UNL1       -0.2237
      5 S          11.8713   41.4052    6.3743 S.2     1  UNL1       -0.0481
      6 C          13.0424   39.2617    9.4886 C.ar    1  UNL1        0.0183
      7 C          13.6115   38.0013    9.2525 C.ar    1  UNL1        0.0015
      8 C          14.2727   37.3176   10.2771 C.ar    1  UNL1        0.0000
      9 C          14.3803   37.8938   11.5452 C.ar    1  UNL1        0.0000
     10 C          13.8313   39.1553   11.7872 C.ar    1  UNL1        0.0000
     11 C          13.1706   39.8380   10.7618 C.ar    1  UNL1        0.0015
     12 C           8.7407   39.2918    5.8225 C.2     1  UNL1        0.4068
     13 O           9.4074   38.2359    5.6409 O.2     1  UNL1       -0.2260
     14 N           9.3187   40.4125    6.4993 N.am    1  UNL1       -0.2298
     15 H           8.7571   41.2128    6.6149 H       1  UNL1        0.1601
     16 O           7.4265   39.3837    5.3649 O.3     1  UNL1       -0.4344
     17 C           6.5273   41.0317    6.8535 C.3     1  UNL1        0.0513
     18 C           6.3444   39.6589    6.2417 C.3     1  UNL1        0.2102
     19 C          14.3655   41.4746    7.6339 C.2     1  UNL1        0.2045
     20 O          15.2256   40.8676    8.3281 O.2     1  UNL1       -0.2859
     21 C          14.7278   42.7607    6.9985 C.ar    1  UNL1        0.0587
     22 C          13.7787   43.4685    6.2484 C.ar    1  UNL1        0.1020
     23 C          15.3388   45.2049    5.8150 C.ar    1  UNL1        0.0989
     24 C          16.3156   44.5417    6.5589 C.ar    1  UNL1        0.0208
     25 C          16.0042   43.3181    7.1527 C.ar    1  UNL1        0.0064
     26 N          14.1006   44.6603    5.6770 N.ar    1  UNL1       -0.2422
@<TRIPOS>BOND
     1    17    18    1
     2    18    16    1
     3    12    16    1
     4    12    14   am
     5     1     5   ar
     6     2     4   ar
     7     2     6    1
     8     3     5   ar
     9     3    19    1
    10    19    21    1
    11    22    26   ar
    12    23    24   ar
    13    25    21   ar
    14     7     8   ar
    15     9    10   ar
    16    11     6   ar
    17    14     1    1
    18    12    13    2
    19     1     4   ar
    20     2     3   ar
    21    19    20    2
    22    21    22   ar
    23    23    26   ar
    24    24    25   ar
    25     6     7   ar
    26     8     9   ar
    27    10    11   ar
    28    14    15    1
@<TRIPOS>MOLECULE
MolPort-002-849-484 8715574 LN01241864 MCULE-7102647929 PubChem-11842440 ZINC000008715574 ZINC08715574
 26 28 0 0 0
SMALL
GASTEIGER

@<TRIPOS>ATOM
      1 C          14.0961   41.8239    7.2533 C.ar    1  UNL1        0.1681
      2 C          12.0869   40.8074    7.2116 C.ar    1  UNL1        0.0923
      3 C          12.6324   40.1979    8.3571 C.ar    1  UNL1        0.0886
      4 N          12.9142   41.7089    6.6115 N.ar    1  UNL1       -0.2237
      5 S          14.1796   40.8273    8.5967 S.2     1  UNL1       -0.0481
      6 C          10.7637   40.5030    6.6238 C.ar    1  UNL1        0.0183
      7 C          10.6376   39.4391    5.7180 C.ar    1  UNL1        0.0015
      8 C           9.3904   39.1092    5.1796 C.ar    1  UNL1        0.0000
      9 C           8.2553   39.8340    5.5510 C.ar    1  UNL1        0.0000
     10 C           8.3667   40.8851    6.4645 C.ar    1  UNL1        0.0000
     11 C           9.6143   41.2138    7.0023 C.ar    1  UNL1        0.0015
     12 C          14.9687   43.9553    6.1859 C.2     1  UNL1        0.4068
     13 O          13.8103   44.3785    5.9186 O.2     1  UNL1       -0.2260
     14 N          15.1524   42.6980    6.8442 N.am    1  UNL1       -0.2298
     15 H          16.0762   42.4126    7.0297 H       1  UNL1        0.1601
     16 O          16.0913   44.7083    5.8429 O.3     1  UNL1       -0.4344
     17 C          17.9645   44.1441    7.2261 C.3     1  UNL1        0.0513
     18 C          17.3946   44.1457    5.8235 C.3     1  UNL1        0.2102
     19 C          11.9472   39.3077    9.3179 C.2     1  UNL1        0.2045
     20 O          10.9889   39.7675    9.9965 O.2     1  UNL1       -0.2859
     21 C          12.3746   37.9071    9.5291 C.ar    1  UNL1        0.0587
     22 C          11.5606   37.0226   10.2500 C.ar    1  UNL1        0.1020
     23 C          13.1060   35.2504    9.9227 C.ar    1  UNL1        0.0989
     24 C          13.9466   36.0903    9.1911 C.ar    1  UNL1        0.0208
     25 C          13.5748   37.4206    8.9939 C.ar    1  UNL1        0.0064
     26 N          11.9397   35.7290   10.4318 N.ar    1  UNL1       -0.2422
@<TRIPOS>BOND
     1    17    18    1
     2    18    16    1
     3    12    16    1
     4    12    14   am
     5     1     5   ar
     6     2     4   ar
     7     2     6    1
     8     3     5   ar
     9     3    19    1
    10    19    21    1
    11    22    26   ar
    12    23    24   ar
    13    25    21   ar
    14     7     8   ar
    15     9    10   ar
    16    11     6   ar
    17    14     1    1
    18    12    13    2
    19     1     4   ar
    20     2     3   ar
    21    19    20    2
    22    21    22   ar
    23    23    26   ar
    24    24    25   ar
    25     6     7   ar
    26     8     9   ar
    27    10    11   ar
    28    14    15    1
@<TRIPOS>MOLECULE
MolPort-002-849-484 8715574 LN01241864 MCULE-7102647929 PubChem-11842440 ZINC000008715574 ZINC08715574
 26 28 0 0 0
SMALL
GASTEIGER

@<TRIPOS>ATOM
      1 C           3.6840   42.7445   10.2459 C.ar    1  UNL1        0.1681
      2 C           1.7251   42.1541   11.1872 C.ar    1  UNL1        0.0923
      3 C           2.5818   41.9505   12.2854 C.ar    1  UNL1        0.0886
      4 N           2.3549   42.5962   10.0625 N.ar    1  UNL1       -0.2237
      5 S           4.1499   42.3463   11.8045 S.2     1  UNL1       -0.0481
      6 C           0.2713   41.8795   11.1688 C.ar    1  UNL1        0.0183
      7 C          -0.3043   41.2763   10.0406 C.ar    1  UNL1        0.0015
      8 C          -1.6686   40.9726   10.0162 C.ar    1  UNL1        0.0000
      9 C          -2.4681   41.2597   11.1253 C.ar    1  UNL1        0.0000
     10 C          -1.9024   41.8457   12.2602 C.ar    1  UNL1        0.0000
     11 C          -0.5380   42.1486   12.2834 C.ar    1  UNL1        0.0015
     12 C           4.2541   44.0937    8.1727 C.2     1  UNL1        0.4068
     13 O           3.0844   44.5552    8.0662 O.2     1  UNL1       -0.2260
     14 N           4.5905   43.1960    9.2353 N.am    1  UNL1       -0.2298
     15 H           5.5164   42.8638    9.2737 H       1  UNL1        0.1601
     16 O           5.2401   44.4520    7.2538 O.3     1  UNL1       -0.4344
     17 C           6.2627   42.2931    7.4381 C.3     1  UNL1        0.0513
     18 C           5.9882   43.4799    6.5390 C.3     1  UNL1        0.2102
     19 C           2.2024   41.6335   13.6785 C.2     1  UNL1        0.2045
     20 O           2.5804   40.5391   14.1780 O.2     1  UNL1       -0.2859
     21 C           1.3662   42.5462   14.4888 C.ar    1  UNL1        0.0587
     22 C           1.6825   43.9094   14.5670 C.ar    1  UNL1        0.1020
     23 C          -0.1936   44.3185   15.9632 C.ar    1  UNL1        0.0989
     24 C          -0.5540   42.9715   15.9095 C.ar    1  UNL1        0.0208
     25 C           0.2292   42.0870   15.1671 C.ar    1  UNL1        0.0064
     26 N           0.9069   44.7567   15.2958 N.ar    1  UNL1       -0.2422
@<TRIPOS>BOND
     1    17    18    1
     2    18    16    1
     3    12    16    1
     4    12    14   am
     5     1     5   ar
     6     2     4   ar
     7     2     6    1
     8     3     5   ar
     9     3    19    1
    10    19    21    1
    11    22    26   ar
    12    23    24   ar
    13    25    21   ar
    14     7     8   ar
    15     9    10   ar
    16    11     6   ar
    17    14     1    1
    18    12    13    2
    19     1     4   ar
    20     2     3   ar
    21    19    20    2
    22    21    22   ar
    23    23    26   ar
    24    24    25   ar
    25     6     7   ar
    26     8     9   ar
    27    10    11   ar
    28    14    15    1
@<TRIPOS>MOLECULE
MolPort-002-849-484 8715574 LN01241864 MCULE-7102647929 PubChem-11842440 ZINC000008715574 ZINC08715574
 26 28 0 0 0
SMALL
GASTEIGER

@<TRIPOS>ATOM
      1 C          16.6369   34.8211    8.2513 C.ar    1  UNL1        0.1681
      2 C          14.9952   36.0161    9.2253 C.ar    1  UNL1        0.0923
      3 C          16.1151   36.6932    9.7437 C.ar    1  UNL1        0.0886
      4 N          15.3043   34.9789    8.3971 N.ar    1  UNL1       -0.2237
      5 S          17.5022   35.9554    9.1283 S.2     1  UNL1       -0.0481
      6 C          13.5834   36.3144    9.5520 C.ar    1  UNL1        0.0183
      7 C          12.8944   35.4924   10.4564 C.ar    1  UNL1        0.0015
      8 C          11.5720   35.7774   10.8092 C.ar    1  UNL1        0.0000
      9 C          10.9299   36.8942   10.2687 C.ar    1  UNL1        0.0000
     10 C          11.6117   37.7285    9.3796 C.ar    1  UNL1        0.0000
     11 C          12.9340   37.4427    9.0278 C.ar    1  UNL1        0.0015
     12 C          17.5842   32.4950    7.8830 C.2     1  UNL1        0.4068
     13 O          17.3569   32.1383    9.0720 O.2     1  UNL1       -0.2260
     14 N          17.2437   33.8119    7.4385 N.am    1  UNL1       -0.2298
     15 H          17.4420   34.0410    6.5018 H       1  UNL1        0.1601
     16 O          18.1726   31.6089    6.9810 O.3     1  UNL1       -0.4344
     17 C          19.6509   32.2338    5.2021 C.3     1  UNL1        0.0513
     18 C          19.5414   31.7074    6.6174 C.3     1  UNL1        0.2102
     19 C          16.1276   37.9435   10.5321 C.2     1  UNL1        0.2045
     20 O          16.0370   37.8719   11.7878 O.2     1  UNL1       -0.2859
     21 C          16.2093   39.2735    9.8890 C.ar    1  UNL1        0.0587
     22 C          17.4535   39.8915    9.7030 C.ar    1  UNL1        0.1020
     23 C          16.4291   41.7553    8.6479 C.ar    1  UNL1        0.0989
     24 C          15.1685   41.1771    8.8030 C.ar    1  UNL1        0.0208
     25 C          15.0631   39.9317    9.4232 C.ar    1  UNL1        0.0064
     26 N          17.5364   41.1060    9.0960 N.ar    1  UNL1       -0.2422
@<TRIPOS>BOND
     1    17    18    1
     2    18    16    1
     3    12    16    1
     4    12    14   am
     5     1     5   ar
     6     2     4   ar
     7     2     6    1
     8     3     5   ar
     9     3    19    1
    10    19    21    1
    11    22    26   ar
    12    23    24   ar
    13    25    21   ar
    14     7     8   ar
    15     9    10   ar
    16    11     6   ar
    17    14     1    1
    18    12    13    2
    19     1     4   ar
    20     2     3   ar
    21    19    20    2
    22    21    22   ar
    23    23    26   ar
    24    24    25   ar
    25     6     7   ar
    26     8     9   ar
    27    10    11   ar
    28    14    15    1
@<TRIPOS>MOLECULE
MolPort-002-849-484 8715574 LN01241864 MCULE-7102647929 PubChem-11842440 ZINC000008715574 ZINC08715574
 26 28 0 0 0
SMALL
GASTEIGER

@<TRIPOS>ATOM
      1 C          10.3805   40.6970    7.8407 C.ar    1  UNL1        0.1681
      2 C          12.2880   40.0216    8.8293 C.ar    1  UNL1        0.0923
      3 C          12.8196   40.9272    7.8919 C.ar    1  UNL1        0.0886
      4 N          10.9307   39.9071    8.7870 N.ar    1  UNL1       -0.2237
      5 S          11.5366   41.5824    7.0135 S.2     1  UNL1       -0.0481
      6 C          13.0774   39.1937    9.7676 C.ar    1  UNL1        0.0183
      7 C          13.4495   39.7233   11.0123 C.ar    1  UNL1        0.0015
      8 C          14.1624   38.9461   11.9300 C.ar    1  UNL1        0.0000
      9 C          14.5003   37.6277   11.6152 C.ar    1  UNL1        0.0000
     10 C          14.1210   37.0849   10.3851 C.ar    1  UNL1        0.0000
     11 C          13.4080   37.8629    9.4684 C.ar    1  UNL1        0.0015
     12 C           7.9809   41.1423    8.5386 C.2     1  UNL1        0.4068
     13 O           8.3045   41.4225    9.7257 O.2     1  UNL1       -0.2260
     14 N           8.9766   40.7787    7.5772 N.am    1  UNL1       -0.2298
     15 H           8.6724   40.5687    6.6648 H       1  UNL1        0.1601
     16 O           6.6439   41.1826    8.1437 O.3     1  UNL1       -0.4344
     17 C           5.1348   42.7977    9.0680 C.3     1  UNL1        0.0513
     18 C           5.5902   41.3539    9.0796 C.3     1  UNL1        0.2102
     19 C          14.2169   41.3971    7.7841 C.2     1  UNL1        0.2045
     20 O          15.1301   40.7212    8.3315 O.2     1  UNL1       -0.2859
     21 C          14.5689   42.6516    7.0832 C.ar    1  UNL1        0.0587
     22 C          13.6373   43.2740    6.2411 C.ar    1  UNL1        0.1020
     23 C          15.1591   45.0346    5.7714 C.ar    1  UNL1        0.0989
     24 C          16.1172   44.4575    6.6058 C.ar    1  UNL1        0.0208
     25 C          15.8162   43.2643    7.2636 C.ar    1  UNL1        0.0064
     26 N          13.9487   44.4372    5.6083 N.ar    1  UNL1       -0.2422
@<TRIPOS>BOND
     1    17    18    1
     2    18    16    1
     3    12    16    1
     4    12    14   am
     5     1     5   ar
     6     2     4   ar
     7     2     6    1
     8     3     5   ar
     9     3    19    1
    10    19    21    1
    11    22    26   ar
    12    23    24   ar
    13    25    21   ar
    14     7     8   ar
    15     9    10   ar
    16    11     6   ar
    17    14     1    1
    18    12    13    2
    19     1     4   ar
    20     2     3   ar
    21    19    20    2
    22    21    22   ar
    23    23    26   ar
    24    24    25   ar
    25     6     7   ar
    26     8     9   ar
    27    10    11   ar
    28    14    15    1
@<TRIPOS>MOLECULE
MolPort-002-849-484 8715574 LN01241864 MCULE-7102647929 PubChem-11842440 ZINC000008715574 ZINC08715574
 26 28 0 0 0
SMALL
GASTEIGER

@<TRIPOS>ATOM
      1 C          13.7836   41.9864    7.0622 C.ar    1  UNL1        0.1681
      2 C          11.9073   40.8127    6.6453 C.ar    1  UNL1        0.0923
      3 C          12.0303   40.5722    8.0267 C.ar    1  UNL1        0.0886
      4 N          12.8901   41.6013    6.1264 N.ar    1  UNL1       -0.2237
      5 S          13.4044   41.3820    8.5773 S.2     1  UNL1       -0.0481
      6 C          10.8625   40.2463    5.7640 C.ar    1  UNL1        0.0183
      7 C          11.2383   39.5293    4.6183 C.ar    1  UNL1        0.0015
      8 C          10.2693   38.9527    3.7919 C.ar    1  UNL1        0.0000
      9 C           8.9149   39.0788    4.1104 C.ar    1  UNL1        0.0000
     10 C           8.5300   39.7770    5.2576 C.ar    1  UNL1        0.0000
     11 C           9.4999   40.3529    6.0831 C.ar    1  UNL1        0.0015
     12 C          14.8809   44.0443    6.0601 C.2     1  UNL1        0.4068
     13 O          13.7963   44.4745    5.5795 O.2     1  UNL1       -0.2260
     14 N          14.9168   42.8190    6.7984 N.am    1  UNL1       -0.2298
     15 H          15.7879   42.5266    7.1519 H       1  UNL1        0.1601
     16 O          16.0652   44.7582    5.8784 O.3     1  UNL1       -0.4344
     17 C          17.9239   44.0859    7.2324 C.3     1  UNL1        0.0513
     18 C          17.3303   44.1152    5.8400 C.3     1  UNL1        0.2102
     19 C          11.0584   39.9005    8.9152 C.2     1  UNL1        0.2045
     20 O          10.9455   38.6460    8.8556 O.2     1  UNL1       -0.2859
     21 C          10.1936   40.6597    9.8451 C.ar    1  UNL1        0.0587
     22 C           9.0730   41.3492    9.3619 C.ar    1  UNL1        0.1020
     23 C           8.5066   42.0700   11.5519 C.ar    1  UNL1        0.0989
     24 C           9.6056   41.3927   12.0819 C.ar    1  UNL1        0.0208
     25 C          10.4471   40.6848   11.2231 C.ar    1  UNL1        0.0064
     26 N           8.2640   42.0338   10.2146 N.ar    1  UNL1       -0.2422
@<TRIPOS>BOND
     1    17    18    1
     2    18    16    1
     3    12    16    1
     4    12    14   am
     5     1     5   ar
     6     2     4   ar
     7     2     6    1
     8     3     5   ar
     9     3    19    1
    10    19    21    1
    11    22    26   ar
    12    23    24   ar
    13    25    21   ar
    14     7     8   ar
    15     9    10   ar
    16    11     6   ar
    17    14     1    1
    18    12    13    2
    19     1     4   ar
    20     2     3   ar
    21    19    20    2
    22    21    22   ar
    23    23    26   ar
    24    24    25   ar
    25     6     7   ar
    26     8     9   ar
    27    10    11   ar
    28    14    15    1
@<TRIPOS>MOLECULE
MolPort-002-849-484 8715574 LN01241864 MCULE-7102647929 PubChem-11842440 ZINC000008715574 ZINC08715574
 26 28 0 0 0
SMALL
GASTEIGER

@<TRIPOS>ATOM
      1 C          16.7597   39.3167    9.4241 C.ar    1  UNL1        0.1681
      2 C          15.0654   37.8439    9.6024 C.ar    1  UNL1        0.0923
      3 C          16.0635   36.9903    9.0959 C.ar    1  UNL1        0.0886
      4 N          15.4704   39.1330    9.7792 N.ar    1  UNL1       -0.2237
      5 S          17.4686   37.8996    8.8819 S.2     1  UNL1       -0.0481
      6 C          13.6660   37.4563    9.8865 C.ar    1  UNL1        0.0183
      7 C          12.6243   38.0347    9.1460 C.ar    1  UNL1        0.0015
      8 C          11.2977   37.6554    9.3708 C.ar    1  UNL1        0.0000
      9 C          11.0018   36.6852   10.3314 C.ar    1  UNL1        0.0000
     10 C          12.0327   36.0910   11.0634 C.ar    1  UNL1        0.0000
     11 C          13.3587   36.4710   10.8375 C.ar    1  UNL1        0.0015
     12 C          17.1480   41.7231    8.7153 C.2     1  UNL1        0.4068
     13 O          16.2193   41.6948    7.8614 O.2     1  UNL1       -0.2260
     14 N          17.4467   40.5690    9.5070 N.am    1  UNL1       -0.2298
     15 H          18.1811   40.6424   10.1586 H       1  UNL1        0.1601
     16 O          17.9002   42.8827    8.9012 O.3     1  UNL1       -0.4344
     17 C          18.9187   44.9864    8.3745 C.3     1  UNL1        0.0513
     18 C          18.0945   43.8261    7.8582 C.3     1  UNL1        0.2102
     19 C          16.0013   35.5214    8.9426 C.2     1  UNL1        0.2045
     20 O          14.8907   34.9413    9.0855 O.2     1  UNL1       -0.2859
     21 C          17.2073   34.7122    8.6605 C.ar    1  UNL1        0.0587
     22 C          17.1332   33.6163    7.7899 C.ar    1  UNL1        0.1020
     23 C          19.4511   33.1787    8.0591 C.ar    1  UNL1        0.0989
     24 C          19.5771   34.2651    8.9258 C.ar    1  UNL1        0.0208
     25 C          18.4504   35.0327    9.2225 C.ar    1  UNL1        0.0064
     26 N          18.2426   32.8797    7.5125 N.ar    1  UNL1       -0.2422
@<TRIPOS>BOND
     1    17    18    1
     2    18    16    1
     3    12    16    1
     4    12    14   am
     5     1     5   ar
     6     2     4   ar
     7     2     6    1
     8     3     5   ar
     9     3    19    1
    10    19    21    1
    11    22    26   ar
    12    23    24   ar
    13    25    21   ar
    14     7     8   ar
    15     9    10   ar
    16    11     6   ar
    17    14     1    1
    18    12    13    2
    19     1     4   ar
    20     2     3   ar
    21    19    20    2
    22    21    22   ar
    23    23    26   ar
    24    24    25   ar
    25     6     7   ar
    26     8     9   ar
    27    10    11   ar
    28    14    15    1
@<TRIPOS>MOLECULE
MolPort-002-849-484 8715574 LN01241864 MCULE-7102647929 PubChem-11842440 ZINC000008715574 ZINC08715574
 26 28 0 0 0
SMALL
GASTEIGER

@<TRIPOS>ATOM
      1 C          14.2075   41.9126    7.5955 C.ar    1  UNL1        0.1681
      2 C          13.2964   40.3123    8.8920 C.ar    1  UNL1        0.0923
      3 C          12.1552   41.1037    8.6626 C.ar    1  UNL1        0.0886
      4 N          14.4277   40.7766    8.2906 N.ar    1  UNL1       -0.2237
      5 S          12.6070   42.3986    7.6796 S.2     1  UNL1       -0.0481
      6 C          13.3471   39.1041    9.7446 C.ar    1  UNL1        0.0183
      7 C          12.7553   37.9146    9.2941 C.ar    1  UNL1        0.0015
      8 C          12.8242   36.7508   10.0657 C.ar    1  UNL1        0.0000
      9 C          13.4958   36.7635   11.2906 C.ar    1  UNL1        0.0000
     10 C          14.1026   37.9383   11.7414 C.ar    1  UNL1        0.0000
     11 C          14.0331   39.1012   10.9689 C.ar    1  UNL1        0.0015
     12 C          14.9930   43.8009    6.0919 C.2     1  UNL1        0.4068
     13 O          13.8407   44.3086    6.0101 O.2     1  UNL1       -0.2260
     14 N          15.2157   42.6172    6.8648 N.am    1  UNL1       -0.2298
     15 H          16.1328   42.2605    6.8960 H       1  UNL1        0.1601
     16 O          16.0707   44.3868    5.4284 O.3     1  UNL1       -0.4344
     17 C          17.8386   44.1604    7.0296 C.3     1  UNL1        0.0513
     18 C          17.4007   43.9207    5.6002 C.3     1  UNL1        0.2102
     19 C          10.7569   40.7983    9.0319 C.2     1  UNL1        0.2045
     20 O          10.3946   40.9601   10.2289 O.2     1  UNL1       -0.2859
     21 C           9.7831   40.2779    8.0471 C.ar    1  UNL1        0.0587
     22 C           8.4501   40.7100    8.0777 C.ar    1  UNL1        0.1020
     23 C           7.9162   39.3663    6.1947 C.ar    1  UNL1        0.0989
     24 C           9.2336   38.9126    6.1183 C.ar    1  UNL1        0.0208
     25 C          10.1668   39.3742    7.0472 C.ar    1  UNL1        0.0064
     26 N           7.5545   40.2490    7.1635 N.ar    1  UNL1       -0.2422
@<TRIPOS>BOND
     1    17    18    1
     2    18    16    1
     3    12    16    1
     4    12    14   am
     5     1     5   ar
     6     2     4   ar
     7     2     6    1
     8     3     5   ar
     9     3    19    1
    10    19    21    1
    11    22    26   ar
    12    23    24   ar
    13    25    21   ar
    14     7     8   ar
    15     9    10   ar
    16    11     6   ar
    17    14     1    1
    18    12    13    2
    19     1     4   ar
    20     2     3   ar
    21    19    20    2
    22    21    22   ar
    23    23    26   ar
    24    24    25   ar
    25     6     7   ar
    26     8     9   ar
    27    10    11   ar
    28    14    15    1
@<TRIPOS>MOLECULE
MolPort-002-849-484 8715574 LN01241864 MCULE-7102647929 PubChem-11842440 ZINC000008715574 ZINC08715574
 26 28 0 0 0
SMALL
GASTEIGER

@<TRIPOS>ATOM
      1 C           1.0484   41.9281   13.0246 C.ar    1  UNL1        0.1681
      2 C          -0.1829   42.5404   14.8081 C.ar    1  UNL1        0.0923
      3 C          -0.5286   43.5762   13.9198 C.ar    1  UNL1        0.0886
      4 N           0.6939   41.6331   14.2932 N.ar    1  UNL1       -0.2237
      5 S           0.2941   43.3165   12.4697 S.2     1  UNL1       -0.0481
      6 C          -0.6482   42.4170   16.2071 C.ar    1  UNL1        0.0183
      7 C          -0.0062   43.1500   17.2165 C.ar    1  UNL1        0.0015
      8 C          -0.4529   43.0785   18.5393 C.ar    1  UNL1        0.0000
      9 C          -1.5536   42.2813   18.8628 C.ar    1  UNL1        0.0000
     10 C          -2.2103   41.5597   17.8630 C.ar    1  UNL1        0.0000
     11 C          -1.7627   41.6321   16.5407 C.ar    1  UNL1        0.0015
     12 C           3.2685   41.5567   11.8512 C.2     1  UNL1        0.4068
     13 O           3.7193   42.6836   12.1970 O.2     1  UNL1       -0.2260
     14 N           1.9537   41.1463   12.2394 N.am    1  UNL1       -0.2298
     15 H           1.6488   40.2582   11.9437 H       1  UNL1        0.1601
     16 O           4.0468   40.6912   11.0829 O.3     1  UNL1       -0.4344
     17 C           3.2571   41.9233    9.1858 C.3     1  UNL1        0.0513
     18 C           4.2492   40.8983    9.6931 C.3     1  UNL1        0.2102
     19 C          -1.5625   44.6161   14.1058 C.2     1  UNL1        0.2045
     20 O          -2.4672   44.7371   13.2357 O.2     1  UNL1       -0.2859
     21 C          -1.5462   45.5378   15.2631 C.ar    1  UNL1        0.0587
     22 C          -2.4717   45.3794   16.3037 C.ar    1  UNL1        0.1020
     23 C          -1.5371   47.2144   17.4849 C.ar    1  UNL1        0.0989
     24 C          -0.5901   47.4074   16.4783 C.ar    1  UNL1        0.0208
     25 C          -0.5966   46.5630   15.3675 C.ar    1  UNL1        0.0064
     26 N          -2.4499   46.2124   17.3788 N.ar    1  UNL1       -0.2422
@<TRIPOS>BOND
     1    17    18    1
     2    18    16    1
     3    12    16    1
     4    12    14   am
     5     1     5   ar
     6     2     4   ar
     7     2     6    1
     8     3     5   ar
     9     3    19    1
    10    19    21    1
    11    22    26   ar
    12    23    24   ar
    13    25    21   ar
    14     7     8   ar
    15     9    10   ar
    16    11     6   ar
    17    14     1    1
    18    12    13    2
    19     1     4   ar
    20     2     3   ar
    21    19    20    2
    22    21    22   ar
    23    23    26   ar
    24    24    25   ar
    25     6     7   ar
    26     8     9   ar
    27    10    11   ar
    28    14    15    1
