@<TRIPOS>MOLECULE
MolPort-003-112-255 8959290 CSSS03436950445 MCULE-6540110749 PubChem-40887186 VZHRHASBLZJDLJ-UHFFFAOYSA-N ZINC000008959290 ZINC08959290
 24 25 0 0 0
SMALL
GASTEIGER

@<TRIPOS>ATOM
      1 C          12.6272   41.2568    7.9330 C.ar    1  UNL1        0.0881
      2 C          13.8485   40.5856    8.2038 C.ar    1  UNL1        0.1533
      3 C          12.8366   38.3552    8.7031 C.3     1  UNL1        0.2138
      4 C          11.8404   38.7127    9.7962 C.3     1  UNL1        0.1095
      5 C          10.8469   37.5721    9.9096 C.3     1  UNL1        0.0129
      6 C          12.5567   38.8611   11.1301 C.3     1  UNL1        0.0129
      7 C          11.1013   39.9768    9.4604 C.2     1  UNL1        0.2320
      8 C          15.0601   41.2454    7.9710 C.ar    1  UNL1        0.0528
      9 C          15.0932   42.5432    7.4475 C.ar    1  UNL1        0.0534
     10 C          13.8931   43.1853    7.1467 C.ar    1  UNL1        0.0162
     11 C          12.6757   42.5499    7.3892 C.ar    1  UNL1        0.0193
     12 N          11.3405   40.6813    8.2299 N.am    1  UNL1       -0.2559
     13 O          13.9259   39.2687    8.6711 O.3     1  UNL1       -0.4737
     14 O          10.2211   40.4045   10.2571 O.2     1  UNL1       -0.2744
     15 C          16.6993   43.9097    5.9911 C.2     1  UNL1        0.2266
     16 C          18.0256   44.5746    5.9115 C.3     1  UNL1        0.0949
     17 N          16.3266   43.2308    7.1968 N.am    1  UNL1       -0.2838
     18 O          15.9264   43.9535    4.9979 O.2     1  UNL1       -0.2748
     19 H          16.9852   43.2370    7.9286 H       1  UNL1        0.1549
     20 C          10.2381   40.8675    7.2840 C.3     1  UNL1        0.0983
     21 C           9.4778   39.5685    7.0293 C.3     1  UNL1        0.0219
     22 C           7.1669   39.4215    6.1593 C.3     1  UNL1        0.0001
     23 C           8.0070   39.7015    7.3868 C.3     1  UNL1        0.0017
     24 C           7.7143   41.1054    7.8805 C.3     1  UNL1        0.0001
@<TRIPOS>BOND
     1    22    23    1
     2    23    24    1
     3    23    21    1
     4    21    20    1
     5    20    12    1
     6     2    13    1
     7     2     8   ar
     8     3    13    1
     9     3     4    1
    10     4     5    1
    11     4     6    1
    12     4     7    1
    13     7    12   am
    14     9    17    1
    15     9    10   ar
    16    16    15    1
    17    11     1   ar
    18    12     1    1
    19    17    15   am
    20     1     2   ar
    21     7    14    2
    22     8     9   ar
    23    15    18    2
    24    10    11   ar
    25    17    19    1
@<TRIPOS>MOLECULE
MolPort-003-112-255 8959290 CSSS03436950445 MCULE-6540110749 PubChem-40887186 VZHRHASBLZJDLJ-UHFFFAOYSA-N ZINC000008959290 ZINC08959290
 24 25 0 0 0
SMALL
GASTEIGER

@<TRIPOS>ATOM
      1 C          10.5826   41.2150    7.2167 C.ar    1  UNL1        0.0881
      2 C          10.9302   42.1000    8.2707 C.ar    1  UNL1        0.1533
      3 C           8.9225   41.6473    9.6892 C.3     1  UNL1        0.2138
      4 C           7.7913   41.9407    8.7148 C.3     1  UNL1        0.1095
      5 C           6.5278   41.3083    9.2668 C.3     1  UNL1        0.0129
      6 C           7.5696   43.4417    8.6055 C.3     1  UNL1        0.0129
      7 C           8.0809   41.3587    7.3605 C.2     1  UNL1        0.2320
      8 C          12.1840   42.7209    8.2598 C.ar    1  UNL1        0.0528
      9 C          13.1149   42.4633    7.2465 C.ar    1  UNL1        0.0534
     10 C          12.7851   41.5645    6.2335 C.ar    1  UNL1        0.0162
     11 C          11.5333   40.9503    6.2185 C.ar    1  UNL1        0.0193
     12 N           9.2809   40.6078    7.1077 N.am    1  UNL1       -0.2559
     13 O          10.0970   42.3784    9.3601 O.3     1  UNL1       -0.4737
     14 O           7.2313   41.4963    6.4376 O.2     1  UNL1       -0.2744
     15 C          14.8204   44.1707    6.3839 C.2     1  UNL1        0.2266
     16 C          16.2058   44.6942    6.5022 C.3     1  UNL1        0.0949
     17 N          14.4065   43.0862    7.2243 N.am    1  UNL1       -0.2838
     18 O          14.0345   44.6881    5.5471 O.2     1  UNL1       -0.2748
     19 H          15.0782   42.7323    7.8512 H       1  UNL1        0.1549
     20 C           9.1762   39.2127    6.6749 C.3     1  UNL1        0.0983
     21 C           8.8074   39.0984    5.1980 C.3     1  UNL1        0.0219
     22 C          10.4360   39.8466    3.4930 C.3     1  UNL1        0.0001
     23 C           9.9998   38.6807    4.3540 C.3     1  UNL1        0.0017
     24 C           9.6239   37.5148    3.4596 C.3     1  UNL1        0.0001
@<TRIPOS>BOND
     1    22    23    1
     2    23    24    1
     3    23    21    1
     4    21    20    1
     5    20    12    1
     6     2    13    1
     7     2     8   ar
     8     3    13    1
     9     3     4    1
    10     4     5    1
    11     4     6    1
    12     4     7    1
    13     7    12   am
    14     9    17    1
    15     9    10   ar
    16    16    15    1
    17    11     1   ar
    18    12     1    1
    19    17    15   am
    20     1     2   ar
    21     7    14    2
    22     8     9   ar
    23    15    18    2
    24    10    11   ar
    25    17    19    1
@<TRIPOS>MOLECULE
MolPort-003-112-255 8959290 CSSS03436950445 MCULE-6540110749 PubChem-40887186 VZHRHASBLZJDLJ-UHFFFAOYSA-N ZINC000008959290 ZINC08959290
 24 25 0 0 0
SMALL
GASTEIGER

@<TRIPOS>ATOM
      1 C          13.7079   40.6811    9.2162 C.ar    1  UNL1        0.0881
      2 C          13.3981   39.5953   10.0767 C.ar    1  UNL1        0.1533
      3 C          10.9343   39.5993    9.6554 C.3     1  UNL1        0.2138
      4 C          10.5721   41.0382    9.9919 C.3     1  UNL1        0.1095
      5 C           9.2129   41.3287    9.3843 C.3     1  UNL1        0.0129
      6 C          10.4727   41.2149   11.4996 C.3     1  UNL1        0.0129
      7 C          11.5798   41.9958    9.4222 C.2     1  UNL1        0.2320
      8 C          14.4384   38.8680   10.6652 C.ar    1  UNL1        0.0528
      9 C          15.7791   39.1697   10.3984 C.ar    1  UNL1        0.0534
     10 C          16.0798   40.2119    9.5231 C.ar    1  UNL1        0.0162
     11 C          15.0561   40.9592    8.9416 C.ar    1  UNL1        0.0193
     12 N          12.6975   41.5338    8.6445 N.am    1  UNL1       -0.2559
     13 O          12.0939   39.1748   10.3607 O.3     1  UNL1       -0.4737
     14 O          11.4165   43.2351    9.5950 O.2     1  UNL1       -0.2744
     15 C          17.6556   37.4248   10.3509 C.2     1  UNL1        0.2266
     16 C          18.7394   36.7615   11.1208 C.3     1  UNL1        0.0949
     17 N          16.8569   38.4297   10.9881 N.am    1  UNL1       -0.2838
     18 O          17.4571   37.0922    9.1527 O.2     1  UNL1       -0.2748
     19 H          17.0700   38.6330   11.9275 H       1  UNL1        0.1549
     20 C          12.8426   41.9852    7.2589 C.3     1  UNL1        0.0983
     21 C          14.3052   42.1996    6.8777 C.3     1  UNL1        0.0219
     22 C          14.5778   43.9270    5.1283 C.3     1  UNL1        0.0001
     23 C          14.6070   43.6661    6.6189 C.3     1  UNL1        0.0017
     24 C          15.9792   44.0202    7.1593 C.3     1  UNL1        0.0001
@<TRIPOS>BOND
     1    22    23    1
     2    23    24    1
     3    23    21    1
     4    21    20    1
     5    20    12    1
     6     2    13    1
     7     2     8   ar
     8     3    13    1
     9     3     4    1
    10     4     5    1
    11     4     6    1
    12     4     7    1
    13     7    12   am
    14     9    17    1
    15     9    10   ar
    16    16    15    1
    17    11     1   ar
    18    12     1    1
    19    17    15   am
    20     1     2   ar
    21     7    14    2
    22     8     9   ar
    23    15    18    2
    24    10    11   ar
    25    17    19    1
@<TRIPOS>MOLECULE
MolPort-003-112-255 8959290 CSSS03436950445 MCULE-6540110749 PubChem-40887186 VZHRHASBLZJDLJ-UHFFFAOYSA-N ZINC000008959290 ZINC08959290
 24 25 0 0 0
SMALL
GASTEIGER

@<TRIPOS>ATOM
      1 C          13.2385   40.8387    8.3196 C.ar    1  UNL1        0.0881
      2 C          12.0118   40.6176    8.9990 C.ar    1  UNL1        0.1533
      3 C          13.0206   39.9339   11.1814 C.3     1  UNL1        0.2138
      4 C          13.9328   38.7953   10.7496 C.3     1  UNL1        0.1095
      5 C          14.9334   38.5544   11.8640 C.3     1  UNL1        0.0129
      6 C          13.1235   37.5233   10.5468 C.3     1  UNL1        0.0129
      7 C          14.6741   39.1453    9.4907 C.2     1  UNL1        0.2320
      8 C          10.8094   40.9671    8.3750 C.ar    1  UNL1        0.0528
      9 C          10.7929   41.5590    7.1065 C.ar    1  UNL1        0.0534
     10 C          12.0010   41.8098    6.4581 C.ar    1  UNL1        0.0162
     11 C          13.2081   41.4516    7.0572 C.ar    1  UNL1        0.0193
     12 N          14.5102   40.4245    8.8547 N.am    1  UNL1       -0.2559
     13 O          11.9223   40.0883   10.2915 O.3     1  UNL1       -0.4737
     14 O          15.4901   38.3136    9.0062 O.2     1  UNL1       -0.2744
     15 C           8.3937   42.4598    7.0806 C.2     1  UNL1        0.2266
     16 C           7.2127   42.7923    6.2427 C.3     1  UNL1        0.0949
     17 N           9.5694   41.9293    6.4561 N.am    1  UNL1       -0.2838
     18 O           8.3410   42.6491    8.3244 O.2     1  UNL1       -0.2748
     19 H           9.5336   41.8063    5.4800 H       1  UNL1        0.1549
     20 C          15.6727   41.3010    8.6964 C.3     1  UNL1        0.0983
     21 C          15.4328   42.3850    7.6487 C.3     1  UNL1        0.0219
     22 C          17.4269   43.4640    8.6377 C.3     1  UNL1        0.0001
     23 C          16.7040   43.1595    7.3434 C.3     1  UNL1        0.0017
     24 C          16.3666   44.4620    6.6433 C.3     1  UNL1        0.0001
@<TRIPOS>BOND
     1    22    23    1
     2    23    24    1
     3    23    21    1
     4    21    20    1
     5    20    12    1
     6     2    13    1
     7     2     8   ar
     8     3    13    1
     9     3     4    1
    10     4     5    1
    11     4     6    1
    12     4     7    1
    13     7    12   am
    14     9    17    1
    15     9    10   ar
    16    16    15    1
    17    11     1   ar
    18    12     1    1
    19    17    15   am
    20     1     2   ar
    21     7    14    2
    22     8     9   ar
    23    15    18    2
    24    10    11   ar
    25    17    19    1
@<TRIPOS>MOLECULE
MolPort-003-112-255 8959290 CSSS03436950445 MCULE-6540110749 PubChem-40887186 VZHRHASBLZJDLJ-UHFFFAOYSA-N ZINC000008959290 ZINC08959290
 24 25 0 0 0
SMALL
GASTEIGER

@<TRIPOS>ATOM
      1 C          11.2187   40.8234    7.7841 C.ar    1  UNL1        0.0881
      2 C          11.3100   41.4928    6.5356 C.ar    1  UNL1        0.1533
      3 C           8.8849   41.3284    5.9526 C.3     1  UNL1        0.2138
      4 C           8.6486   39.8293    6.0611 C.3     1  UNL1        0.1095
      5 C           7.1524   39.6017    6.1638 C.3     1  UNL1        0.0129
      6 C           9.1573   39.1265    4.8115 C.3     1  UNL1        0.0129
      7 C           9.3165   39.2646    7.2826 C.2     1  UNL1        0.2320
      8 C          12.5185   42.0929    6.1658 C.ar    1  UNL1        0.0528
      9 C          13.6309   42.0733    7.0155 C.ar    1  UNL1        0.0534
     10 C          13.5265   41.4483    8.2570 C.ar    1  UNL1        0.0162
     11 C          12.3354   40.8293    8.6346 C.ar    1  UNL1        0.0193
     12 N          10.0407   40.1048    8.1976 N.am    1  UNL1       -0.2559
     13 O          10.2412   41.6213    5.6413 O.3     1  UNL1       -0.4737
     14 O           9.2021   38.0329    7.5319 O.2     1  UNL1       -0.2744
     15 C          15.0472   43.9606    6.0154 C.2     1  UNL1        0.2266
     16 C          16.4202   44.4444    5.7186 C.3     1  UNL1        0.0949
     17 N          14.8746   42.6894    6.6542 N.am    1  UNL1       -0.2838
     18 O          14.0594   44.6750    5.6998 O.2     1  UNL1       -0.2748
     19 H          15.6943   42.1874    6.8671 H       1  UNL1        0.1549
     20 C           9.6056   40.1872    9.5935 C.3     1  UNL1        0.0983
     21 C           8.8305   41.4716    9.8758 C.3     1  UNL1        0.0219
     22 C          10.3226   43.3575   10.4559 C.3     1  UNL1        0.0001
     23 C           9.4482   42.2582   11.0198 C.3     1  UNL1        0.0017
     24 C          10.2941   41.3440   11.8853 C.3     1  UNL1        0.0001
@<TRIPOS>BOND
     1    22    23    1
     2    23    24    1
     3    23    21    1
     4    21    20    1
     5    20    12    1
     6     2    13    1
     7     2     8   ar
     8     3    13    1
     9     3     4    1
    10     4     5    1
    11     4     6    1
    12     4     7    1
    13     7    12   am
    14     9    17    1
    15     9    10   ar
    16    16    15    1
    17    11     1   ar
    18    12     1    1
    19    17    15   am
    20     1     2   ar
    21     7    14    2
    22     8     9   ar
    23    15    18    2
    24    10    11   ar
    25    17    19    1
@<TRIPOS>MOLECULE
MolPort-003-112-255 8959290 CSSS03436950445 MCULE-6540110749 PubChem-40887186 VZHRHASBLZJDLJ-UHFFFAOYSA-N ZINC000008959290 ZINC08959290
 24 25 0 0 0
SMALL
GASTEIGER

@<TRIPOS>ATOM
      1 C          13.5257   38.3336    9.6211 C.ar    1  UNL1        0.0881
      2 C          13.5758   39.7177    9.9325 C.ar    1  UNL1        0.1533
      3 C          16.0109   40.0227    9.4575 C.3     1  UNL1        0.2138
      4 C          16.6294   38.9601   10.3539 C.3     1  UNL1        0.1095
      5 C          18.0471   38.7155    9.8731 C.3     1  UNL1        0.0129
      6 C          16.6876   39.4557   11.7910 C.3     1  UNL1        0.0129
      7 C          15.8563   37.6741   10.2791 C.2     1  UNL1        0.2320
      8 C          12.3865   40.4042   10.1999 C.ar    1  UNL1        0.0528
      9 C          11.1447   39.7609   10.1365 C.ar    1  UNL1        0.0534
     10 C          11.0958   38.4109    9.7931 C.ar    1  UNL1        0.0162
     11 C          12.2724   37.7064    9.5411 C.ar    1  UNL1        0.0193
     12 N          14.7094   37.5371    9.4227 N.am    1  UNL1       -0.2559
     13 O          14.7578   40.4663    9.9629 O.3     1  UNL1       -0.4737
     14 O          16.2491   36.6807   10.9507 O.2     1  UNL1       -0.2744
     15 C           9.5541   41.1214   11.6154 C.2     1  UNL1        0.2266
     16 C           8.2315   41.7916   11.7093 C.3     1  UNL1        0.0949
     17 N           9.9161   40.4518   10.4012 N.am    1  UNL1       -0.2838
     18 O          10.3334   41.1526   12.6040 O.2     1  UNL1       -0.2748
     19 H           9.2530   40.4678    9.6736 H       1  UNL1        0.1549
     20 C          14.7226   36.5271    8.3623 C.3     1  UNL1        0.0983
     21 C          14.6427   35.1093    8.9222 C.3     1  UNL1        0.0219
     22 C          16.2379   34.7581    7.0645 C.3     1  UNL1        0.0001
     23 C          15.7799   34.2407    8.4111 C.3     1  UNL1        0.0017
     24 C          15.3137   32.8053    8.2604 C.3     1  UNL1        0.0001
@<TRIPOS>BOND
     1    22    23    1
     2    23    24    1
     3    23    21    1
     4    21    20    1
     5    20    12    1
     6     2    13    1
     7     2     8   ar
     8     3    13    1
     9     3     4    1
    10     4     5    1
    11     4     6    1
    12     4     7    1
    13     7    12   am
    14     9    17    1
    15     9    10   ar
    16    16    15    1
    17    11     1   ar
    18    12     1    1
    19    17    15   am
    20     1     2   ar
    21     7    14    2
    22     8     9   ar
    23    15    18    2
    24    10    11   ar
    25    17    19    1
@<TRIPOS>MOLECULE
MolPort-003-112-255 8959290 CSSS03436950445 MCULE-6540110749 PubChem-40887186 VZHRHASBLZJDLJ-UHFFFAOYSA-N ZINC000008959290 ZINC08959290
 24 25 0 0 0
SMALL
GASTEIGER

@<TRIPOS>ATOM
      1 C          13.0575   37.9367    9.5406 C.ar    1  UNL1        0.0881
      2 C          13.4080   39.3008    9.3630 C.ar    1  UNL1        0.1533
      3 C          15.8807   38.9787    9.5366 C.3     1  UNL1        0.2138
      4 C          16.0002   38.2720   10.8787 C.3     1  UNL1        0.1095
      5 C          17.3696   37.6224   10.9405 C.3     1  UNL1        0.0129
      6 C          15.8943   39.2799   12.0132 C.3     1  UNL1        0.0129
      7 C          14.9462   37.2116   11.0261 C.2     1  UNL1        0.2320
      8 C          12.4142   40.2261    9.0257 C.ar    1  UNL1        0.0528
      9 C          11.0863   39.8290    8.8297 C.ar    1  UNL1        0.0534
     10 C          10.7524   38.4827    8.9673 C.ar    1  UNL1        0.0162
     11 C          11.7263   37.5494    9.3208 C.ar    1  UNL1        0.0193
     12 N          14.0028   36.9405    9.9754 N.am    1  UNL1       -0.2559
     13 O          14.7143   39.7900    9.4765 O.3     1  UNL1       -0.4737
     14 O          14.9170   36.5159   12.0784 O.2     1  UNL1       -0.2744
     15 C           9.6532   41.1340    7.1530 C.2     1  UNL1        0.2266
     16 C           8.5583   42.1227    6.9769 C.3     1  UNL1        0.0949
     17 N          10.0572   40.7637    8.4771 N.am    1  UNL1       -0.2838
     18 O          10.2077   40.6395    6.1363 O.2     1  UNL1       -0.2748
     19 H           9.5790   41.1955    9.2216 H       1  UNL1        0.1549
     20 C          13.9633   35.6060    9.3736 C.3     1  UNL1        0.0983
     21 C          15.3613   35.0774    9.0630 C.3     1  UNL1        0.0219
     22 C          16.1318   33.1137    7.7711 C.3     1  UNL1        0.0001
     23 C          15.4284   34.4508    7.6803 C.3     1  UNL1        0.0017
     24 C          16.1963   35.3539    6.7342 C.3     1  UNL1        0.0001
@<TRIPOS>BOND
     1    22    23    1
     2    23    24    1
     3    23    21    1
     4    21    20    1
     5    20    12    1
     6     2    13    1
     7     2     8   ar
     8     3    13    1
     9     3     4    1
    10     4     5    1
    11     4     6    1
    12     4     7    1
    13     7    12   am
    14     9    17    1
    15     9    10   ar
    16    16    15    1
    17    11     1   ar
    18    12     1    1
    19    17    15   am
    20     1     2   ar
    21     7    14    2
    22     8     9   ar
    23    15    18    2
    24    10    11   ar
    25    17    19    1
@<TRIPOS>MOLECULE
MolPort-003-112-255 8959290 CSSS03436950445 MCULE-6540110749 PubChem-40887186 VZHRHASBLZJDLJ-UHFFFAOYSA-N ZINC000008959290 ZINC08959290
 24 25 0 0 0
SMALL
GASTEIGER

@<TRIPOS>ATOM
      1 C          14.4430   40.1103    9.2632 C.ar    1  UNL1        0.0881
      2 C          13.4379   40.9651    8.7394 C.ar    1  UNL1        0.1533
      3 C          11.4988   39.8006    9.8033 C.3     1  UNL1        0.2138
      4 C          11.6961   38.3741    9.3124 C.3     1  UNL1        0.1095
      5 C          10.8718   37.4601   10.1991 C.3     1  UNL1        0.0129
      6 C          11.1946   38.2376    7.8827 C.3     1  UNL1        0.0129
      7 C          13.1404   37.9691    9.3969 C.2     1  UNL1        0.2320
      8 C          13.8133   42.1169    8.0395 C.ar    1  UNL1        0.0528
      9 C          15.1601   42.4599    7.8715 C.ar    1  UNL1        0.0534
     10 C          16.1438   41.6388    8.4199 C.ar    1  UNL1        0.0162
     11 C          15.7886   40.4773    9.1051 C.ar    1  UNL1        0.0193
     12 N          14.1407   38.8622    9.9157 N.am    1  UNL1       -0.2559
     13 O          12.0657   40.7448    8.9036 O.3     1  UNL1       -0.4737
     14 O          13.4739   36.8043    9.0443 O.2     1  UNL1       -0.2744
     15 C          14.7888   44.3635    6.1962 C.2     1  UNL1        0.2266
     16 C          15.3685   45.5754    5.5617 C.3     1  UNL1        0.0949
     17 N          15.5613   43.6404    7.1627 N.am    1  UNL1       -0.2838
     18 O          13.6296   43.9923    5.8734 O.2     1  UNL1       -0.2748
     19 H          16.4602   43.9900    7.3604 H       1  UNL1        0.1549
     20 C          14.9085   38.4693   11.0993 C.3     1  UNL1        0.0983
     21 C          16.4132   38.5196   10.8472 C.3     1  UNL1        0.0219
     22 C          18.4579   37.1418   11.0472 C.3     1  UNL1        0.0001
     23 C          16.9956   37.1291   10.6569 C.3     1  UNL1        0.0017
     24 C          16.8715   36.7050    9.2060 C.3     1  UNL1        0.0001
@<TRIPOS>BOND
     1    22    23    1
     2    23    24    1
     3    23    21    1
     4    21    20    1
     5    20    12    1
     6     2    13    1
     7     2     8   ar
     8     3    13    1
     9     3     4    1
    10     4     5    1
    11     4     6    1
    12     4     7    1
    13     7    12   am
    14     9    17    1
    15     9    10   ar
    16    16    15    1
    17    11     1   ar
    18    12     1    1
    19    17    15   am
    20     1     2   ar
    21     7    14    2
    22     8     9   ar
    23    15    18    2
    24    10    11   ar
    25    17    19    1
@<TRIPOS>MOLECULE
MolPort-003-112-255 8959290 CSSS03436950445 MCULE-6540110749 PubChem-40887186 VZHRHASBLZJDLJ-UHFFFAOYSA-N ZINC000008959290 ZINC08959290
 24 25 0 0 0
SMALL
GASTEIGER

@<TRIPOS>ATOM
      1 C          12.7399   40.3018    8.4516 C.ar    1  UNL1        0.0881
      2 C          11.6882   39.9164    9.3237 C.ar    1  UNL1        0.1533
      3 C          13.0992   39.6743   11.3727 C.3     1  UNL1        0.2138
      4 C          14.1632   38.6979   10.8937 C.3     1  UNL1        0.1095
      5 C          15.3315   38.7749   11.8582 C.3     1  UNL1        0.0129
      6 C          13.6178   37.2779   10.9114 C.3     1  UNL1        0.0129
      7 C          14.6405   39.0536    9.5143 C.2     1  UNL1        0.2320
      8 C          10.3670   39.9568    8.8650 C.ar    1  UNL1        0.0528
      9 C          10.0583   40.3988    7.5731 C.ar    1  UNL1        0.0534
     10 C          11.0899   40.8127    6.7321 C.ar    1  UNL1        0.0162
     11 C          12.4141   40.7622    7.1662 C.ar    1  UNL1        0.0193
     12 N          14.1297   40.2027    8.8169 N.am    1  UNL1       -0.2559
     13 O          11.8842   39.5171   10.6506 O.3     1  UNL1       -0.4737
     14 O          15.5402   38.3522    8.9751 O.2     1  UNL1       -0.2744
     15 C           7.9286   39.3532    6.6039 C.2     1  UNL1        0.2266
     16 C           6.5369   39.5968    6.1444 C.3     1  UNL1        0.0949
     17 N           8.7090   40.4525    7.0901 N.am    1  UNL1       -0.2838
     18 O           8.3986   38.1859    6.5574 O.2     1  UNL1       -0.2748
     19 H           8.2739   41.3357    7.0927 H       1  UNL1        0.1549
     20 C          15.0517   41.2687    8.4192 C.3     1  UNL1        0.0983
     21 C          14.5369   42.0490    7.2125 C.3     1  UNL1        0.0219
     22 C          15.0518   43.8985    5.6525 C.3     1  UNL1        0.0001
     23 C          15.2520   43.3812    7.0607 C.3     1  UNL1        0.0017
     24 C          16.7362   43.2099    7.3217 C.3     1  UNL1        0.0001
@<TRIPOS>BOND
     1    22    23    1
     2    23    24    1
     3    23    21    1
     4    21    20    1
     5    20    12    1
     6     2    13    1
     7     2     8   ar
     8     3    13    1
     9     3     4    1
    10     4     5    1
    11     4     6    1
    12     4     7    1
    13     7    12   am
    14     9    17    1
    15     9    10   ar
    16    16    15    1
    17    11     1   ar
    18    12     1    1
    19    17    15   am
    20     1     2   ar
    21     7    14    2
    22     8     9   ar
    23    15    18    2
    24    10    11   ar
    25    17    19    1
@<TRIPOS>MOLECULE
MolPort-003-112-255 8959290 CSSS03436950445 MCULE-6540110749 PubChem-40887186 VZHRHASBLZJDLJ-UHFFFAOYSA-N ZINC000008959290 ZINC08959290
 24 25 0 0 0
SMALL
GASTEIGER

@<TRIPOS>ATOM
      1 C           7.7933   41.3234    8.5998 C.ar    1  UNL1        0.0881
      2 C           6.8852   40.5384    7.8419 C.ar    1  UNL1        0.1533
      3 C           4.8069   41.6939    8.6123 C.3     1  UNL1        0.2138
      4 C           4.9329   41.5677   10.1233 C.3     1  UNL1        0.1095
      5 C           3.9931   42.5781   10.7533 C.3     1  UNL1        0.0129
      6 C           4.5120   40.1757   10.5700 C.3     1  UNL1        0.0129
      7 C           6.3370   41.8550   10.5737 C.2     1  UNL1        0.2320
      8 C           7.3833   39.6189    6.9125 C.ar    1  UNL1        0.0528
      9 C           8.7587   39.4788    6.6926 C.ar    1  UNL1        0.0534
     10 C           9.6464   40.2781    7.4109 C.ar    1  UNL1        0.0162
     11 C           9.1686   41.1871    8.3543 C.ar    1  UNL1        0.0193
     12 N           7.3641   42.2251    9.6379 N.am    1  UNL1       -0.2559
     13 O           5.4933   40.6441    7.9422 O.3     1  UNL1       -0.4737
     14 O           6.6086   41.8119   11.8053 O.2     1  UNL1       -0.2744
     15 C           9.4279   38.7518    4.3280 C.2     1  UNL1        0.2266
     16 C          10.0010   37.6674    3.4895 C.3     1  UNL1        0.0949
     17 N           9.2851   38.5459    5.7390 N.am    1  UNL1       -0.2838
     18 O           9.0769   39.8321    3.7845 O.2     1  UNL1       -0.2748
     19 H           9.5787   37.6741    6.0899 H       1  UNL1        0.1549
     20 C           8.0278   43.5230    9.7775 C.3     1  UNL1        0.0983
     21 C           7.4673   44.5591    8.8067 C.3     1  UNL1        0.0219
     22 C           7.0293   43.8540    6.4765 C.3     1  UNL1        0.0001
     23 C           6.4406   43.9485    7.8676 C.3     1  UNL1        0.0017
     24 C           5.1947   44.8122    7.8232 C.3     1  UNL1        0.0001
@<TRIPOS>BOND
     1    22    23    1
     2    23    24    1
     3    23    21    1
     4    21    20    1
     5    20    12    1
     6     2    13    1
     7     2     8   ar
     8     3    13    1
     9     3     4    1
    10     4     5    1
    11     4     6    1
    12     4     7    1
    13     7    12   am
    14     9    17    1
    15     9    10   ar
    16    16    15    1
    17    11     1   ar
    18    12     1    1
    19    17    15   am
    20     1     2   ar
    21     7    14    2
    22     8     9   ar
    23    15    18    2
    24    10    11   ar
    25    17    19    1
