@<TRIPOS>MOLECULE
MolPort-002-278-583 CSC026731956 CSSS00026731956 MCULE-9217409368 PubChem-959501 Z57089957 ZINC00568481
 29 30 0 0 0
SMALL
GASTEIGER

@<TRIPOS>ATOM
      1 C          10.7498   41.8186    7.7424 C.2     1  UNL1        0.3212
      2 O          11.0808   42.1165    8.9220 O.2     1  UNL1       -0.2509
      3 N           9.3716   41.7269    7.3688 N.am    1  UNL1       -0.2542
      4 N          11.7543   41.5683    6.7620 N.am    1  UNL1       -0.2177
      5 H           9.1687   41.4912    6.4347 H       1  UNL1        0.1578
      6 H          11.4875   41.3364    5.8431 H       1  UNL1        0.1744
      7 C           6.3382   42.6875    9.0434 C.ar    1  UNL1        0.0857
      8 C           6.9894   41.8822    9.9705 C.ar    1  UNL1        0.0408
      9 C           6.4943   41.5325   11.3315 C.3     1  UNL1        0.0500
     10 C           8.2647   41.9517    8.2495 C.ar    1  UNL1        0.1085
     11 C           7.1682   42.7260    7.9378 C.ar    1  UNL1        0.0153
     12 C           6.9435   43.4534    6.6552 C.3     1  UNL1        0.0342
     13 N           8.1659   41.4311    9.4894 N.ar    1  UNL1       -0.3451
     14 H           8.8137   40.8469    9.9458 H       1  UNL1        0.1668
     15 C           5.0341   43.3639    9.1995 C.2     1  UNL1        0.3421
     16 O           4.8334   44.4832    8.6537 O.2     1  UNL1       -0.2449
     17 O           4.0241   42.7608    9.9519 O.3     1  UNL1       -0.4454
     18 C           3.3012   40.4834   10.1403 C.3     1  UNL1        0.0513
     19 C           3.1473   41.7927    9.3952 C.3     1  UNL1        0.2089
     20 C          13.8879   42.7995    6.7462 C.2     1  UNL1        0.2614
     21 O          13.3423   43.7648    6.1450 O.2     1  UNL1       -0.2686
     22 N          13.1148   41.6474    7.0859 N.am    1  UNL1       -0.2291
     23 H          13.5452   40.8966    7.5553 H       1  UNL1        0.1732
     24 C          15.3177   42.8605    7.0970 C.ar    1  UNL1        0.0548
     25 C          16.1772   43.7420    6.4243 C.ar    1  UNL1        0.0046
     26 C          17.5336   43.7991    6.7578 C.ar    1  UNL1        0.0001
     27 C          18.0405   42.9751    7.7663 C.ar    1  UNL1        0.0000
     28 C          17.1915   42.0942    8.4413 C.ar    1  UNL1        0.0001
     29 C          15.8350   42.0371    8.1078 C.ar    1  UNL1        0.0046
@<TRIPOS>BOND
     1    18    19    1
     2    19    17    1
     3    15    17    1
     4    15     7    1
     5     8    13   ar
     6     9     8    1
     7    10     3    1
     8     1     4   am
     9    20    24    1
    10    25    26   ar
    11    27    28   ar
    12    29    24   ar
    13    11     7   ar
    14    12    11    1
    15    13    10   ar
    16     3     1   am
    17     4    22    1
    18    22    20   am
    19    15    16    2
    20     7     8   ar
    21    10    11   ar
    22     1     2    2
    23    20    21    2
    24    24    25   ar
    25    26    27   ar
    26    28    29   ar
    27    13    14    1
    28     3     5    1
    29     4     6    1
    30    22    23    1
@<TRIPOS>MOLECULE
MolPort-002-278-583 CSC026731956 CSSS00026731956 MCULE-9217409368 PubChem-959501 Z57089957 ZINC00568481
 29 30 0 0 0
SMALL
GASTEIGER

@<TRIPOS>ATOM
      1 C          10.8628   42.0648    6.6607 C.2     1  UNL1        0.3212
      2 O          10.9892   42.3261    7.8877 O.2     1  UNL1       -0.2509
      3 N           9.5695   42.0203    6.0501 N.am    1  UNL1       -0.2542
      4 N          12.0172   41.8092    5.8639 N.am    1  UNL1       -0.2177
      5 H           9.5277   41.8119    5.0888 H       1  UNL1        0.1578
      6 H          11.9101   41.6061    4.9066 H       1  UNL1        0.1744
      7 C           6.5584   41.9521    8.0140 C.ar    1  UNL1        0.0857
      8 C           6.5384   43.2076    7.4177 C.ar    1  UNL1        0.0408
      9 C           5.4836   44.2455    7.5906 C.3     1  UNL1        0.0500
     10 C           8.3311   42.2556    6.7302 C.ar    1  UNL1        0.1085
     11 C           7.7177   41.3465    7.5646 C.ar    1  UNL1        0.0153
     12 C           8.2226   39.9839    7.9007 C.3     1  UNL1        0.0342
     13 N           7.6191   43.3965    6.6332 N.ar    1  UNL1       -0.3451
     14 H           7.8405   44.1961    6.1032 H       1  UNL1        0.1668
     15 C           5.5554   41.3784    8.9346 C.2     1  UNL1        0.3421
     16 O           4.4389   40.9931    8.4920 O.2     1  UNL1       -0.2449
     17 O           5.8467   41.2630   10.2954 O.3     1  UNL1       -0.4454
     18 C           4.0908   40.2296   11.5576 C.3     1  UNL1        0.0513
     19 C           4.8692   41.5021   11.2969 C.3     1  UNL1        0.2089
     20 C          14.0712   43.0462    6.4294 C.2     1  UNL1        0.2614
     21 O          13.5920   44.0991    5.9267 O.2     1  UNL1       -0.2686
     22 N          13.3015   41.8428    6.4222 N.am    1  UNL1       -0.2291
     23 H          13.6799   41.0236    6.8159 H       1  UNL1        0.1732
     24 C          15.4201   43.0577    7.0222 C.ar    1  UNL1        0.0548
     25 C          15.7820   42.1017    7.9831 C.ar    1  UNL1        0.0046
     26 C          17.0621   42.1135    8.5450 C.ar    1  UNL1        0.0001
     27 C          17.9896   43.0814    8.1501 C.ar    1  UNL1        0.0000
     28 C          17.6374   44.0373    7.1937 C.ar    1  UNL1        0.0001
     29 C          16.3574   44.0255    6.6318 C.ar    1  UNL1        0.0046
@<TRIPOS>BOND
     1    18    19    1
     2    19    17    1
     3    15    17    1
     4    15     7    1
     5     8    13   ar
     6     9     8    1
     7    10     3    1
     8     1     4   am
     9    20    24    1
    10    25    26   ar
    11    27    28   ar
    12    29    24   ar
    13    11     7   ar
    14    12    11    1
    15    13    10   ar
    16     3     1   am
    17     4    22    1
    18    22    20   am
    19    15    16    2
    20     7     8   ar
    21    10    11   ar
    22     1     2    2
    23    20    21    2
    24    24    25   ar
    25    26    27   ar
    26    28    29   ar
    27    13    14    1
    28     3     5    1
    29     4     6    1
    30    22    23    1
@<TRIPOS>MOLECULE
MolPort-002-278-583 CSC026731956 CSSS00026731956 MCULE-9217409368 PubChem-959501 Z57089957 ZINC00568481
 29 30 0 0 0
SMALL
GASTEIGER

@<TRIPOS>ATOM
      1 C           9.4436   42.3674    9.8486 C.2     1  UNL1        0.3212
      2 O           9.1235   41.6430    8.8675 O.2     1  UNL1       -0.2509
      3 N          10.8176   42.5720   10.1914 N.am    1  UNL1       -0.2542
      4 N           8.4306   42.9946   10.6317 N.am    1  UNL1       -0.2177
      5 H          11.0119   43.1470   10.9665 H       1  UNL1        0.1578
      6 H           8.6887   43.5588   11.3961 H       1  UNL1        0.1744
      7 C          13.5652   40.6279    8.9265 C.ar    1  UNL1        0.0857
      8 C          13.5093   41.7215    8.0703 C.ar    1  UNL1        0.0408
      9 C          14.4091   41.9759    6.9104 C.3     1  UNL1        0.0500
     10 C          11.9320   42.0043    9.4933 C.ar    1  UNL1        0.1085
     11 C          12.5446   40.8196    9.8400 C.ar    1  UNL1        0.0153
     12 C          12.1652   39.9362   10.9802 C.3     1  UNL1        0.0342
     13 N          12.5135   42.5640    8.4132 N.ar    1  UNL1       -0.3451
     14 H          12.2645   43.4070    7.9698 H       1  UNL1        0.1668
     15 C          14.5130   39.4958    8.8775 C.2     1  UNL1        0.3421
     16 O          15.7113   39.6589    9.2360 O.2     1  UNL1       -0.2449
     17 O          14.0790   38.2447    8.4343 O.3     1  UNL1       -0.4454
     18 C          13.0765   36.4702    9.6955 C.3     1  UNL1        0.0513
     19 C          14.3638   37.0524    9.1506 C.3     1  UNL1        0.2089
     20 C           6.2768   41.8708   11.0401 C.2     1  UNL1        0.2614
     21 O           6.7975   41.1749   11.9542 O.2     1  UNL1       -0.2686
     22 N           7.0737   42.8204   10.3304 N.am    1  UNL1       -0.2291
     23 H           6.6626   43.3613    9.6179 H       1  UNL1        0.1732
     24 C           4.8514   41.7047   10.7058 C.ar    1  UNL1        0.0548
     25 C           3.8579   42.1041   11.6123 C.ar    1  UNL1        0.0046
     26 C           2.5058   41.9461   11.2943 C.ar    1  UNL1        0.0001
     27 C           2.1372   41.3874   10.0675 C.ar    1  UNL1        0.0000
     28 C           3.1202   40.9868    9.1588 C.ar    1  UNL1        0.0001
     29 C           4.4723   41.1449    9.4768 C.ar    1  UNL1        0.0046
@<TRIPOS>BOND
     1    18    19    1
     2    19    17    1
     3    15    17    1
     4    15     7    1
     5     8    13   ar
     6     9     8    1
     7    10     3    1
     8     1     4   am
     9    20    24    1
    10    25    26   ar
    11    27    28   ar
    12    29    24   ar
    13    11     7   ar
    14    12    11    1
    15    13    10   ar
    16     3     1   am
    17     4    22    1
    18    22    20   am
    19    15    16    2
    20     7     8   ar
    21    10    11   ar
    22     1     2    2
    23    20    21    2
    24    24    25   ar
    25    26    27   ar
    26    28    29   ar
    27    13    14    1
    28     3     5    1
    29     4     6    1
    30    22    23    1
@<TRIPOS>MOLECULE
MolPort-002-278-583 CSC026731956 CSSS00026731956 MCULE-9217409368 PubChem-959501 Z57089957 ZINC00568481
 29 30 0 0 0
SMALL
GASTEIGER

@<TRIPOS>ATOM
      1 C          11.3612   42.1088    7.9161 C.2     1  UNL1        0.3212
      2 O          11.5664   42.4106    9.1229 O.2     1  UNL1       -0.2509
      3 N          12.4488   41.9973    6.9931 N.am    1  UNL1       -0.2542
      4 N          10.0321   41.8740    7.4564 N.am    1  UNL1       -0.2177
      5 H          12.2327   41.7587    6.0627 H       1  UNL1        0.1578
      6 H           9.8802   41.6386    6.5126 H       1  UNL1        0.1744
      7 C          15.8560   41.8885    8.1368 C.ar    1  UNL1        0.0857
      8 C          15.7721   43.0973    7.4555 C.ar    1  UNL1        0.0408
      9 C          16.8756   44.0815    7.2737 C.3     1  UNL1        0.0500
     10 C          13.8279   42.2061    7.3189 C.ar    1  UNL1        0.1085
     11 C          14.5979   41.3219    8.0430 C.ar    1  UNL1        0.0153
     12 C          14.1423   40.0178    8.6054 C.3     1  UNL1        0.0342
     13 N          14.5354   43.2946    6.9547 N.ar    1  UNL1       -0.3451
     14 H          14.2174   44.0677    6.4347 H       1  UNL1        0.1668
     15 C          17.0370   41.3223    8.8203 C.2     1  UNL1        0.3421
     16 O          18.1625   41.3344    8.2511 O.2     1  UNL1       -0.2449
     17 O          16.9044   40.7748   10.0980 O.3     1  UNL1       -0.4454
     18 C          16.9198   38.3784   10.0588 C.3     1  UNL1        0.0513
     19 C          17.6412   39.6321   10.5069 C.3     1  UNL1        0.2089
     20 C           7.8024   41.1197    8.1831 C.2     1  UNL1        0.2614
     21 O           7.7765   40.2612    7.2593 O.2     1  UNL1       -0.2686
     22 N           8.9391   41.9728    8.3269 N.am    1  UNL1       -0.2291
     23 H           8.9546   42.6412    9.0496 H       1  UNL1        0.1732
     24 C           6.6640   41.2418    9.1106 C.ar    1  UNL1        0.0548
     25 C           6.8793   41.5445   10.4635 C.ar    1  UNL1        0.0046
     26 C           5.7986   41.6601   11.3428 C.ar    1  UNL1        0.0001
     27 C           4.4947   41.4738   10.8757 C.ar    1  UNL1        0.0000
     28 C           4.2714   41.1720    9.5298 C.ar    1  UNL1        0.0001
     29 C           5.3521   41.0564    8.6505 C.ar    1  UNL1        0.0046
@<TRIPOS>BOND
     1    18    19    1
     2    19    17    1
     3    15    17    1
     4    15     7    1
     5     8    13   ar
     6     9     8    1
     7    10     3    1
     8     1     4   am
     9    20    24    1
    10    25    26   ar
    11    27    28   ar
    12    29    24   ar
    13    11     7   ar
    14    12    11    1
    15    13    10   ar
    16     3     1   am
    17     4    22    1
    18    22    20   am
    19    15    16    2
    20     7     8   ar
    21    10    11   ar
    22     1     2    2
    23    20    21    2
    24    24    25   ar
    25    26    27   ar
    26    28    29   ar
    27    13    14    1
    28     3     5    1
    29     4     6    1
    30    22    23    1
@<TRIPOS>MOLECULE
MolPort-002-278-583 CSC026731956 CSSS00026731956 MCULE-9217409368 PubChem-959501 Z57089957 ZINC00568481
 29 30 0 0 0
SMALL
GASTEIGER

@<TRIPOS>ATOM
      1 C          11.2793   41.8401    7.5112 C.2     1  UNL1        0.3212
      2 O          11.5897   42.4409    8.5753 O.2     1  UNL1       -0.2509
      3 N           9.9118   41.5517    7.2042 N.am    1  UNL1       -0.2542
      4 N          12.2968   41.4392    6.5964 N.am    1  UNL1       -0.2177
      5 H           9.7250   41.0808    6.3601 H       1  UNL1        0.1578
      6 H          12.0462   40.9705    5.7677 H       1  UNL1        0.1744
      7 C           7.3649   41.9139    9.7163 C.ar    1  UNL1        0.0857
      8 C           7.0118   42.8462    8.7476 C.ar    1  UNL1        0.0408
      9 C           5.8354   43.7592    8.7947 C.3     1  UNL1        0.0500
     10 C           8.7939   41.8957    8.0309 C.ar    1  UNL1        0.1085
     11 C           8.5146   41.3067    9.2450 C.ar    1  UNL1        0.0153
     12 C           9.3092   40.2282    9.9007 C.3     1  UNL1        0.0342
     13 N           7.8818   42.8380    7.7171 N.ar    1  UNL1       -0.3451
     14 H           7.8565   43.3997    6.9090 H       1  UNL1        0.1668
     15 C           6.6639   41.6263   10.9846 C.2     1  UNL1        0.3421
     16 O           5.4143   41.7782   11.0643 O.2     1  UNL1       -0.2449
     17 O           7.3877   41.1851   12.0942 O.3     1  UNL1       -0.4454
     18 C           9.1489   41.2368   13.7190 C.3     1  UNL1        0.0513
     19 C           8.2270   42.0548   12.8392 C.3     1  UNL1        0.2089
     20 C          14.2326   42.9610    6.5228 C.2     1  UNL1        0.2614
     21 O          13.5266   43.8551    5.9813 O.2     1  UNL1       -0.2686
     22 N          13.6476   41.7018    6.8586 N.am    1  UNL1       -0.2291
     23 H          14.2027   41.0072    7.2813 H       1  UNL1        0.1732
     24 C          15.6558   43.2148    6.8079 C.ar    1  UNL1        0.0548
     25 C          16.2561   42.6807    7.9580 C.ar    1  UNL1        0.0046
     26 C          17.6064   42.9221    8.2277 C.ar    1  UNL1        0.0001
     27 C          18.3663   43.6994    7.3494 C.ar    1  UNL1        0.0000
     28 C          17.7763   44.2352    6.2016 C.ar    1  UNL1        0.0001
     29 C          16.4260   43.9938    5.9319 C.ar    1  UNL1        0.0046
@<TRIPOS>BOND
     1    18    19    1
     2    19    17    1
     3    15    17    1
     4    15     7    1
     5     8    13   ar
     6     9     8    1
     7    10     3    1
     8     1     4   am
     9    20    24    1
    10    25    26   ar
    11    27    28   ar
    12    29    24   ar
    13    11     7   ar
    14    12    11    1
    15    13    10   ar
    16     3     1   am
    17     4    22    1
    18    22    20   am
    19    15    16    2
    20     7     8   ar
    21    10    11   ar
    22     1     2    2
    23    20    21    2
    24    24    25   ar
    25    26    27   ar
    26    28    29   ar
    27    13    14    1
    28     3     5    1
    29     4     6    1
    30    22    23    1
@<TRIPOS>MOLECULE
MolPort-002-278-583 CSC026731956 CSSS00026731956 MCULE-9217409368 PubChem-959501 Z57089957 ZINC00568481
 29 30 0 0 0
SMALL
GASTEIGER

@<TRIPOS>ATOM
      1 C          10.7160   41.3544    9.3346 C.2     1  UNL1        0.3212
      2 O          10.4100   40.1651    9.6204 O.2     1  UNL1       -0.2509
      3 N          12.0828   41.7778    9.3259 N.am    1  UNL1       -0.2542
      4 N           9.6942   42.2959    9.0148 N.am    1  UNL1       -0.2177
      5 H          12.2661   42.7172    9.0955 H       1  UNL1        0.1578
      6 H           9.9415   43.2226    8.7926 H       1  UNL1        0.1744
      7 C          14.4912   39.4419   10.6191 C.ar    1  UNL1        0.0857
      8 C          15.1338   40.0117    9.5261 C.ar    1  UNL1        0.0408
      9 C          16.5072   39.6881    9.0479 C.3     1  UNL1        0.0500
     10 C          13.2047   40.9397    9.6268 C.ar    1  UNL1        0.1085
     11 C          13.2486   40.0467   10.6754 C.ar    1  UNL1        0.0153
     12 C          12.1594   39.7993   11.6638 C.3     1  UNL1        0.0342
     13 N          14.3515   40.9265    8.9178 N.ar    1  UNL1       -0.3451
     14 H          14.5708   41.4686    8.1258 H       1  UNL1        0.1668
     15 C          15.0185   38.4080   11.5331 C.2     1  UNL1        0.3421
     16 O          15.5502   38.7432   12.6267 O.2     1  UNL1       -0.2449
     17 O          14.9261   37.0592   11.1839 O.3     1  UNL1       -0.4454
     18 C          13.4459   36.1249    9.5467 C.3     1  UNL1        0.0513
     19 C          13.6749   36.4095   11.0163 C.3     1  UNL1        0.2089
     20 C           7.5580   41.9892   10.2027 C.2     1  UNL1        0.2614
     21 O           8.0825   42.3898   11.2776 O.2     1  UNL1       -0.2686
     22 N           8.3441   41.9228    9.0117 N.am    1  UNL1       -0.2291
     23 H           7.9301   41.6097    8.1752 H       1  UNL1        0.1732
     24 C           6.1395   41.5915   10.1757 C.ar    1  UNL1        0.0548
     25 C           5.3806   41.7460    9.0059 C.ar    1  UNL1        0.0046
     26 C           4.0348   41.3683    8.9813 C.ar    1  UNL1        0.0001
     27 C           3.4380   40.8335   10.1263 C.ar    1  UNL1        0.0000
     28 C           4.1867   40.6763   11.2956 C.ar    1  UNL1        0.0001
     29 C           5.5325   41.0539   11.3202 C.ar    1  UNL1        0.0046
@<TRIPOS>BOND
     1    18    19    1
     2    19    17    1
     3    15    17    1
     4    15     7    1
     5     8    13   ar
     6     9     8    1
     7    10     3    1
     8     1     4   am
     9    20    24    1
    10    25    26   ar
    11    27    28   ar
    12    29    24   ar
    13    11     7   ar
    14    12    11    1
    15    13    10   ar
    16     3     1   am
    17     4    22    1
    18    22    20   am
    19    15    16    2
    20     7     8   ar
    21    10    11   ar
    22     1     2    2
    23    20    21    2
    24    24    25   ar
    25    26    27   ar
    26    28    29   ar
    27    13    14    1
    28     3     5    1
    29     4     6    1
    30    22    23    1
@<TRIPOS>MOLECULE
MolPort-002-278-583 CSC026731956 CSSS00026731956 MCULE-9217409368 PubChem-959501 Z57089957 ZINC00568481
 29 30 0 0 0
SMALL
GASTEIGER

@<TRIPOS>ATOM
      1 C          10.9733   40.4156   10.3894 C.2     1  UNL1        0.3212
      2 O          11.1979   40.0485    9.2043 O.2     1  UNL1       -0.2509
      3 N          11.9095   40.1338   11.4340 N.am    1  UNL1       -0.2542
      4 N           9.7742   41.1210   10.7018 N.am    1  UNL1       -0.2177
      5 H          11.6850   40.4432   12.3413 H       1  UNL1        0.1578
      6 H           9.6063   41.4042   11.6296 H       1  UNL1        0.1744
      7 C          15.1539   38.8866   10.5133 C.ar    1  UNL1        0.0857
      8 C          14.7193   37.9959   11.4880 C.ar    1  UNL1        0.0408
      9 C          15.4702   36.8131   11.9946 C.3     1  UNL1        0.0500
     10 C          13.1483   39.4359   11.2611 C.ar    1  UNL1        0.1085
     11 C          14.1344   39.8108   10.3744 C.ar    1  UNL1        0.0153
     12 C          14.0884   40.9847    9.4555 C.3     1  UNL1        0.0342
     13 N          13.4953   38.3280   11.9469 N.ar    1  UNL1       -0.3451
     14 H          12.9681   37.8615   12.6351 H       1  UNL1        0.1668
     15 C          16.4339   38.8579    9.7762 C.2     1  UNL1        0.3421
     16 O          17.0434   39.9336    9.5264 O.2     1  UNL1       -0.2449
     17 O          16.9676   37.6373    9.3577 O.3     1  UNL1       -0.4454
     18 C          19.2769   37.3630    8.7776 C.3     1  UNL1        0.0513
     19 C          18.2148   37.1576    9.8373 C.3     1  UNL1        0.2089
     20 C           8.5256   42.7687    9.3622 C.2     1  UNL1        0.2614
     21 O           9.1110   43.7153    9.9557 O.2     1  UNL1       -0.2686
     22 N           8.8314   41.4171    9.7091 N.am    1  UNL1       -0.2291
     23 H           8.3719   40.6817    9.2428 H       1  UNL1        0.1732
     24 C           7.5301   43.0563    8.3147 C.ar    1  UNL1        0.0548
     25 C           7.6249   42.4421    7.0568 C.ar    1  UNL1        0.0046
     26 C           6.6799   42.7157    6.0635 C.ar    1  UNL1        0.0001
     27 C           5.6333   43.6053    6.3208 C.ar    1  UNL1        0.0000
     28 C           5.5315   44.2214    7.5708 C.ar    1  UNL1        0.0001
     29 C           6.4764   43.9479    8.5641 C.ar    1  UNL1        0.0046
@<TRIPOS>BOND
     1    18    19    1
     2    19    17    1
     3    15    17    1
     4    15     7    1
     5     8    13   ar
     6     9     8    1
     7    10     3    1
     8     1     4   am
     9    20    24    1
    10    25    26   ar
    11    27    28   ar
    12    29    24   ar
    13    11     7   ar
    14    12    11    1
    15    13    10   ar
    16     3     1   am
    17     4    22    1
    18    22    20   am
    19    15    16    2
    20     7     8   ar
    21    10    11   ar
    22     1     2    2
    23    20    21    2
    24    24    25   ar
    25    26    27   ar
    26    28    29   ar
    27    13    14    1
    28     3     5    1
    29     4     6    1
    30    22    23    1
@<TRIPOS>MOLECULE
MolPort-002-278-583 CSC026731956 CSSS00026731956 MCULE-9217409368 PubChem-959501 Z57089957 ZINC00568481
 29 30 0 0 0
SMALL
GASTEIGER

@<TRIPOS>ATOM
      1 C          10.9479   41.9869    7.4516 C.2     1  UNL1        0.3212
      2 O          11.1426   42.9726    8.2132 O.2     1  UNL1       -0.2509
      3 N           9.6938   41.2980    7.4501 N.am    1  UNL1       -0.2542
      4 N          11.9845   41.5460    6.5775 N.am    1  UNL1       -0.2177
      5 H           9.5949   40.5352    6.8357 H       1  UNL1        0.1578
      6 H          11.8245   40.7756    5.9858 H       1  UNL1        0.1744
      7 C           7.2569   41.8343   10.0391 C.ar    1  UNL1        0.0857
      8 C           6.6663   42.3840    8.9072 C.ar    1  UNL1        0.0408
      9 C           5.3271   43.0337    8.8428 C.3     1  UNL1        0.0500
     10 C           8.5711   41.6332    8.2741 C.ar    1  UNL1        0.1085
     11 C           8.4841   41.3531    9.6205 C.ar    1  UNL1        0.0153
     12 C           9.5209   40.6650   10.4427 C.3     1  UNL1        0.0342
     13 N           7.4657   42.2631    7.8277 N.ar    1  UNL1       -0.3451
     14 H           7.2815   42.5692    6.9103 H       1  UNL1        0.1668
     15 C           6.6971   41.7728   11.4049 C.2     1  UNL1        0.3421
     16 O           7.4652   41.8075   12.4048 O.2     1  UNL1       -0.2449
     17 O           5.3158   41.6771   11.5862 O.3     1  UNL1       -0.4454
     18 C           3.6141   40.4032   10.4792 C.3     1  UNL1        0.0513
     19 C           4.6425   40.4272   11.5905 C.3     1  UNL1        0.2089
     20 C          14.2621   41.8429    7.4680 C.2     1  UNL1        0.2614
     21 O          14.0602   40.9385    8.3238 O.2     1  UNL1       -0.2686
     22 N          13.2270   42.1922    6.5476 N.am    1  UNL1       -0.2291
     23 H          13.3895   42.8986    5.8814 H       1  UNL1        0.1732
     24 C          15.5612   42.5362    7.4179 C.ar    1  UNL1        0.0548
     25 C          15.7658   43.5980    6.5239 C.ar    1  UNL1        0.0046
     26 C          16.9988   44.2552    6.4771 C.ar    1  UNL1        0.0001
     27 C          18.0362   43.8556    7.3238 C.ar    1  UNL1        0.0000
     28 C          17.8410   42.7991    8.2173 C.ar    1  UNL1        0.0001
     29 C          16.6080   42.1418    8.2641 C.ar    1  UNL1        0.0046
@<TRIPOS>BOND
     1    18    19    1
     2    19    17    1
     3    15    17    1
     4    15     7    1
     5     8    13   ar
     6     9     8    1
     7    10     3    1
     8     1     4   am
     9    20    24    1
    10    25    26   ar
    11    27    28   ar
    12    29    24   ar
    13    11     7   ar
    14    12    11    1
    15    13    10   ar
    16     3     1   am
    17     4    22    1
    18    22    20   am
    19    15    16    2
    20     7     8   ar
    21    10    11   ar
    22     1     2    2
    23    20    21    2
    24    24    25   ar
    25    26    27   ar
    26    28    29   ar
    27    13    14    1
    28     3     5    1
    29     4     6    1
    30    22    23    1
@<TRIPOS>MOLECULE
MolPort-002-278-583 CSC026731956 CSSS00026731956 MCULE-9217409368 PubChem-959501 Z57089957 ZINC00568481
 29 30 0 0 0
SMALL
GASTEIGER

@<TRIPOS>ATOM
      1 C          10.6618   40.9434    8.2653 C.2     1  UNL1        0.3212
      2 O           9.9335   40.0359    8.7508 O.2     1  UNL1       -0.2509
      3 N          12.0836   40.7922    8.2115 N.am    1  UNL1       -0.2542
      4 N          10.0700   42.1386    7.7611 N.am    1  UNL1       -0.2177
      5 H          12.6048   41.5310    7.8221 H       1  UNL1        0.1578
      6 H          10.6455   42.8424    7.3834 H       1  UNL1        0.1744
      7 C          13.7461   38.1787   10.0375 C.ar    1  UNL1        0.0857
      8 C          13.9451   37.8327    8.7060 C.ar    1  UNL1        0.0408
      9 C          14.6862   36.6393    8.2098 C.3     1  UNL1        0.0500
     10 C          12.8067   39.6483    8.6809 C.ar    1  UNL1        0.1085
     11 C          13.0115   39.3501   10.0106 C.ar    1  UNL1        0.0153
     12 C          12.5278   40.1487   11.1737 C.3     1  UNL1        0.0342
     13 N          13.3729   38.7276    7.8748 N.ar    1  UNL1       -0.3451
     14 H          13.3695   38.7119    6.8904 H       1  UNL1        0.1668
     15 C          14.2179   37.4529   11.2347 C.2     1  UNL1        0.3421
     16 O          15.1508   37.9307   11.9365 O.2     1  UNL1       -0.2449
     17 O          13.6281   36.2374   11.5879 O.3     1  UNL1       -0.4454
     18 C          11.3863   35.7399   10.9017 C.3     1  UNL1        0.0513
     19 C          12.8592   35.4786   10.6667 C.3     1  UNL1        0.2089
     20 C           8.0818   43.2189    8.7350 C.2     1  UNL1        0.2614
     21 O           8.8075   43.8505    9.5507 O.2     1  UNL1       -0.2686
     22 N           8.6823   42.3268    7.7947 N.am    1  UNL1       -0.2291
     23 H           8.1115   41.8363    7.1600 H       1  UNL1        0.1732
     24 C           6.6197   43.4010    8.7520 C.ar    1  UNL1        0.0548
     25 C           5.8113   42.5830    9.5556 C.ar    1  UNL1        0.0046
     26 C           4.4242   42.7566    9.5711 C.ar    1  UNL1        0.0001
     27 C           3.8353   43.7492    8.7831 C.ar    1  UNL1        0.0000
     28 C           4.6331   44.5683    7.9798 C.ar    1  UNL1        0.0001
     29 C           6.0202   44.3948    7.9643 C.ar    1  UNL1        0.0046
@<TRIPOS>BOND
     1    18    19    1
     2    19    17    1
     3    15    17    1
     4    15     7    1
     5     8    13   ar
     6     9     8    1
     7    10     3    1
     8     1     4   am
     9    20    24    1
    10    25    26   ar
    11    27    28   ar
    12    29    24   ar
    13    11     7   ar
    14    12    11    1
    15    13    10   ar
    16     3     1   am
    17     4    22    1
    18    22    20   am
    19    15    16    2
    20     7     8   ar
    21    10    11   ar
    22     1     2    2
    23    20    21    2
    24    24    25   ar
    25    26    27   ar
    26    28    29   ar
    27    13    14    1
    28     3     5    1
    29     4     6    1
    30    22    23    1
@<TRIPOS>MOLECULE
MolPort-002-278-583 CSC026731956 CSSS00026731956 MCULE-9217409368 PubChem-959501 Z57089957 ZINC00568481
 29 30 0 0 0
SMALL
GASTEIGER

@<TRIPOS>ATOM
      1 C          10.2365   41.1022    8.0478 C.2     1  UNL1        0.3212
      2 O          10.2765   42.1876    8.6880 O.2     1  UNL1       -0.2509
      3 N          11.3229   40.7083    7.2040 N.am    1  UNL1       -0.2542
      4 N           9.0987   40.2503    8.1598 N.am    1  UNL1       -0.2177
      5 H          11.2403   39.8510    6.7271 H       1  UNL1        0.1578
      6 H           9.0753   39.4043    7.6568 H       1  UNL1        0.1744
      7 C          14.5671   42.2576    7.2666 C.ar    1  UNL1        0.0857
      8 C          13.9406   42.8413    6.1716 C.ar    1  UNL1        0.0408
      9 C          14.5293   43.8687    5.2674 C.3     1  UNL1        0.0500
     10 C          12.5214   41.4656    7.0000 C.ar    1  UNL1        0.1085
     11 C          13.6442   41.3726    7.7936 C.ar    1  UNL1        0.0153
     12 C          13.8081   40.4861    8.9818 C.3     1  UNL1        0.0342
     13 N          12.6916   42.3603    6.0057 N.ar    1  UNL1       -0.3451
     14 H          12.0430   42.6091    5.3080 H       1  UNL1        0.1668
     15 C          15.9312   42.5225    7.7682 C.2     1  UNL1        0.3421
     16 O          16.6293   41.5785    8.2291 O.2     1  UNL1       -0.2449
     17 O          16.4460   43.8200    7.7298 O.3     1  UNL1       -0.4454
     18 C          17.8945   43.7440    5.8219 C.3     1  UNL1        0.0513
     19 C          17.7683   44.0920    7.2902 C.3     1  UNL1        0.2089
     20 C           6.8656   41.2537    8.4336 C.2     1  UNL1        0.2614
     21 O           6.8219   41.5259    7.2027 O.2     1  UNL1       -0.2686
     22 N           8.0138   40.5983    8.9747 N.am    1  UNL1       -0.2291
     23 H           8.0430   40.3878    9.9360 H       1  UNL1        0.1732
     24 C           5.7361   41.6103    9.3099 C.ar    1  UNL1        0.0548
     25 C           5.7099   41.1810   10.6453 C.ar    1  UNL1        0.0046
     26 C           4.6378   41.5199   11.4760 C.ar    1  UNL1        0.0001
     27 C           3.5839   42.2906   10.9775 C.ar    1  UNL1        0.0000
     28 C           3.6020   42.7223    9.6486 C.ar    1  UNL1        0.0001
     29 C           4.6742   42.3834    8.8179 C.ar    1  UNL1        0.0046
@<TRIPOS>BOND
     1    18    19    1
     2    19    17    1
     3    15    17    1
     4    15     7    1
     5     8    13   ar
     6     9     8    1
     7    10     3    1
     8     1     4   am
     9    20    24    1
    10    25    26   ar
    11    27    28   ar
    12    29    24   ar
    13    11     7   ar
    14    12    11    1
    15    13    10   ar
    16     3     1   am
    17     4    22    1
    18    22    20   am
    19    15    16    2
    20     7     8   ar
    21    10    11   ar
    22     1     2    2
    23    20    21    2
    24    24    25   ar
    25    26    27   ar
    26    28    29   ar
    27    13    14    1
    28     3     5    1
    29     4     6    1
    30    22    23    1
