@<TRIPOS>MOLECULE
MolPort-007-723-531 6818343 ChemDiv-E157-6114 MCULE-9466694236 PubChem-22518071 ZINC000006818343 ZINC06818343
 26 27 0 0 0
SMALL
GASTEIGER

@<TRIPOS>ATOM
      1 C           6.7660   42.5644    9.6665 C.ar    1  UNL1        0.1893
      2 C           9.0958   42.0482    9.7318 C.ar    1  UNL1        0.2593
      3 N           7.4276   42.9702    8.5601 N.ar    1  UNL1       -0.1239
      4 N           8.7273   42.6827    8.5979 N.ar    1  UNL1       -0.1187
      5 S           7.7897   41.8113   10.7688 S.2     1  UNL1       -0.0102
      6 C           4.5967   42.1050   10.9053 C.2     1  UNL1        0.2271
      7 O           5.1382   41.2971   11.7056 O.2     1  UNL1       -0.2747
      8 N           5.3641   42.7507    9.8808 N.am    1  UNL1       -0.2627
      9 H           4.8901   43.3692    9.2791 H       1  UNL1        0.1568
     10 C           3.1342   42.3881   11.0362 C.3     1  UNL1        0.0769
     11 C           1.3116   42.5026   12.7373 C.3     1  UNL1        0.0005
     12 C           2.6167   41.8309   12.3532 C.3     1  UNL1        0.0091
     13 C           2.3609   41.7906    9.8665 C.3     1  UNL1        0.0091
     14 C           3.1689   40.6926    9.2004 C.3     1  UNL1        0.0005
     15 O          10.9777   41.5739   11.5637 O.2     1  UNL1       -0.1477
     16 O          11.6862   42.5251    9.4237 O.2     1  UNL1       -0.1477
     17 S          10.7410   41.5577   10.0795 S.O2    1  UNL1        0.1010
     18 C          10.2391   39.5166    8.3190 C.3     1  UNL1        0.1392
     19 N          11.0134   39.9508    9.4738 N.pl3   1  UNL1       -0.1870
     20 C          11.9566   39.0577   10.1001 C.ar    1  UNL1        0.0686
     21 C          11.8092   37.6653    9.9795 C.ar    1  UNL1        0.0119
     22 C          12.7193   36.7968   10.5884 C.ar    1  UNL1       -0.0206
     23 C          12.5490   35.3271   10.4516 C.3     1  UNL1        0.0311
     24 C          13.7885   37.3103   11.3260 C.ar    1  UNL1       -0.0042
     25 C          13.9477   38.6919   11.4539 C.ar    1  UNL1        0.0010
     26 C          13.0373   39.5594   10.8443 C.ar    1  UNL1        0.0161
@<TRIPOS>BOND
     1    11    12    1
     2    12    10    1
     3    10    13    1
     4    10     6    1
     5    13    14    1
     6     6     8   am
     7     1     5   ar
     8     2     5   ar
     9    18    19    1
    10    21    22   ar
    11    23    22    1
    12    24    25   ar
    13    26    20   ar
    14     8     1    1
    15     3     4   ar
    16    19    20    1
    17    17     2    1
    18    17    19    1
    19     6     7    2
    20     1     3   ar
    21     2     4   ar
    22    20    21   ar
    23    22    24   ar
    24    25    26   ar
    25    17    15    2
    26    17    16    2
    27     8     9    1
@<TRIPOS>MOLECULE
MolPort-007-723-531 6818343 ChemDiv-E157-6114 MCULE-9466694236 PubChem-22518071 ZINC000006818343 ZINC06818343
 26 27 0 0 0
SMALL
GASTEIGER

@<TRIPOS>ATOM
      1 C           9.2241   41.4048   10.1368 C.ar    1  UNL1        0.1893
      2 C          11.4010   41.1156    9.2007 C.ar    1  UNL1        0.2593
      3 N          10.1543   42.2017   10.7081 N.ar    1  UNL1       -0.1239
      4 N          11.3685   42.0390   10.1859 N.ar    1  UNL1       -0.1187
      5 S           9.8831   40.4386    8.9274 S.2     1  UNL1       -0.0102
      6 C           6.8051   42.1316    9.8695 C.2     1  UNL1        0.2271
      7 O           7.0634   42.8931    8.8999 O.2     1  UNL1       -0.2747
      8 N           7.8439   41.3806   10.5115 N.am    1  UNL1       -0.2627
      9 H           7.5879   40.8046   11.2677 H       1  UNL1        0.1568
     10 C           5.3928   42.0159   10.3471 C.3     1  UNL1        0.0769
     11 C           3.7976   40.5972   11.6397 C.3     1  UNL1        0.0005
     12 C           5.2468   40.7887   11.2333 C.3     1  UNL1        0.0091
     13 C           4.4283   41.9383    9.1695 C.3     1  UNL1        0.0091
     14 C           3.6132   43.2138    9.0648 C.3     1  UNL1        0.0005
     15 O          12.7951   39.2199    7.9416 O.2     1  UNL1       -0.1477
     16 O          14.0422   40.8793    9.2369 O.2     1  UNL1       -0.1477
     17 S          12.8574   40.6689    8.3361 S.O2    1  UNL1        0.1010
     18 C          12.0280   41.4654    5.8471 C.3     1  UNL1        0.1392
     19 N          13.0121   41.6454    6.9058 N.pl3   1  UNL1       -0.1870
     20 C          14.0897   42.5909    6.7500 C.ar    1  UNL1        0.0686
     21 C          15.3135   42.3935    7.4122 C.ar    1  UNL1        0.0119
     22 C          16.3587   43.3100    7.2665 C.ar    1  UNL1       -0.0206
     23 C          17.6462   43.0868    7.9738 C.3     1  UNL1        0.0311
     24 C          16.1927   44.4357    6.4565 C.ar    1  UNL1       -0.0042
     25 C          14.9821   44.6445    5.7921 C.ar    1  UNL1        0.0010
     26 C          13.9379   43.7273    5.9382 C.ar    1  UNL1        0.0161
@<TRIPOS>BOND
     1    11    12    1
     2    12    10    1
     3    10    13    1
     4    10     6    1
     5    13    14    1
     6     6     8   am
     7     1     5   ar
     8     2     5   ar
     9    18    19    1
    10    21    22   ar
    11    23    22    1
    12    24    25   ar
    13    26    20   ar
    14     8     1    1
    15     3     4   ar
    16    19    20    1
    17    17     2    1
    18    17    19    1
    19     6     7    2
    20     1     3   ar
    21     2     4   ar
    22    20    21   ar
    23    22    24   ar
    24    25    26   ar
    25    17    15    2
    26    17    16    2
    27     8     9    1
@<TRIPOS>MOLECULE
MolPort-007-723-531 6818343 ChemDiv-E157-6114 MCULE-9466694236 PubChem-22518071 ZINC000006818343 ZINC06818343
 26 27 0 0 0
SMALL
GASTEIGER

@<TRIPOS>ATOM
      1 C          12.2531   40.5597    9.3910 C.ar    1  UNL1        0.1893
      2 C          10.4961   42.1734    9.4772 C.ar    1  UNL1        0.2593
      3 N          12.5809   41.7290    8.7976 N.ar    1  UNL1       -0.1239
      4 N          11.5998   42.6281    8.8453 N.ar    1  UNL1       -0.1187
      5 S          10.6922   40.5901   10.0177 S.2     1  UNL1       -0.0102
      6 C          13.6844   38.9149   10.6939 C.2     1  UNL1        0.2271
      7 O          13.4338   39.4600   11.8015 O.2     1  UNL1       -0.2747
      8 N          13.1241   39.4285    9.4783 N.am    1  UNL1       -0.2627
      9 H          13.3565   38.9675    8.6400 H       1  UNL1        0.1568
     10 C          14.5775   37.7160   10.6590 C.3     1  UNL1        0.0769
     11 C          12.8750   35.9755   10.1111 C.3     1  UNL1        0.0005
     12 C          13.8259   36.4976   11.1719 C.3     1  UNL1        0.0091
     13 C          15.8337   37.9532   11.4890 C.3     1  UNL1        0.0091
     14 C          16.7514   38.9416   10.7940 C.3     1  UNL1        0.0005
     15 O           8.3430   43.2847    8.3584 O.2     1  UNL1       -0.1477
     16 O           9.4042   44.4751   10.2140 O.2     1  UNL1       -0.1477
     17 S           9.0356   43.1185    9.6820 S.O2    1  UNL1        0.1010
     18 C           8.4416   42.0738   12.1463 C.3     1  UNL1        0.1392
     19 N           7.9662   42.3112   10.7902 N.pl3   1  UNL1       -0.1870
     20 C           6.6561   41.8650   10.3854 C.ar    1  UNL1        0.0686
     21 C           5.8298   41.1692   11.2846 C.ar    1  UNL1        0.0119
     22 C           4.5610   40.7318   10.8944 C.ar    1  UNL1       -0.0206
     23 C           3.7001   39.9972   11.8571 C.3     1  UNL1        0.0311
     24 C           4.1027   40.9848    9.5995 C.ar    1  UNL1       -0.0042
     25 C           4.9127   41.6755    8.6955 C.ar    1  UNL1        0.0010
     26 C           6.1810   42.1127    9.0868 C.ar    1  UNL1        0.0161
@<TRIPOS>BOND
     1    11    12    1
     2    12    10    1
     3    10    13    1
     4    10     6    1
     5    13    14    1
     6     6     8   am
     7     1     5   ar
     8     2     5   ar
     9    18    19    1
    10    21    22   ar
    11    23    22    1
    12    24    25   ar
    13    26    20   ar
    14     8     1    1
    15     3     4   ar
    16    19    20    1
    17    17     2    1
    18    17    19    1
    19     6     7    2
    20     1     3   ar
    21     2     4   ar
    22    20    21   ar
    23    22    24   ar
    24    25    26   ar
    25    17    15    2
    26    17    16    2
    27     8     9    1
@<TRIPOS>MOLECULE
MolPort-007-723-531 6818343 ChemDiv-E157-6114 MCULE-9466694236 PubChem-22518071 ZINC000006818343 ZINC06818343
 26 27 0 0 0
SMALL
GASTEIGER

@<TRIPOS>ATOM
      1 C           8.5987   41.9629    9.8682 C.ar    1  UNL1        0.1893
      2 C          10.8925   41.3020    9.8493 C.ar    1  UNL1        0.2593
      3 N           9.3287   42.5628   10.8346 N.ar    1  UNL1       -0.1239
      4 N          10.6078   42.1928   10.8238 N.ar    1  UNL1       -0.1187
      5 S           9.5314   40.9206    8.9333 S.2     1  UNL1       -0.0102
      6 C           6.1642   41.7992   10.5737 C.2     1  UNL1        0.2271
      7 O           6.4397   41.2154   11.6553 O.2     1  UNL1       -0.2747
      8 N           7.2007   42.1830    9.6606 N.am    1  UNL1       -0.2627
      9 H           6.9297   42.6320    8.8275 H       1  UNL1        0.1568
     10 C           4.7341   42.0924   10.2494 C.3     1  UNL1        0.0769
     11 C           3.6165   40.6704   11.9690 C.3     1  UNL1        0.0005
     12 C           3.8865   40.8524   10.4871 C.3     1  UNL1        0.0091
     13 C           4.5925   42.5638    8.8069 C.3     1  UNL1        0.0091
     14 C           3.7964   43.8540    8.7448 C.3     1  UNL1        0.0005
     15 O          13.0989   40.2445   10.9152 O.2     1  UNL1       -0.1477
     16 O          13.3541   41.6417    8.9230 O.2     1  UNL1       -0.1477
     17 S          12.4842   40.6165    9.5949 S.O2    1  UNL1        0.1010
     18 C          12.0488   39.3749    7.1895 C.3     1  UNL1        0.1392
     19 N          12.3578   39.1950    8.6016 N.pl3   1  UNL1       -0.1870
     20 C          12.5283   37.8726    9.1506 C.ar    1  UNL1        0.0686
     21 C          13.6671   37.1111    8.8371 C.ar    1  UNL1        0.0119
     22 C          13.8337   35.8275    9.3644 C.ar    1  UNL1       -0.0206
     23 C          15.0434   35.0354    9.0227 C.3     1  UNL1        0.0311
     24 C          12.8628   35.2893   10.2121 C.ar    1  UNL1       -0.0042
     25 C          11.7262   36.0348   10.5327 C.ar    1  UNL1        0.0010
     26 C          11.5609   37.3183   10.0052 C.ar    1  UNL1        0.0161
@<TRIPOS>BOND
     1    11    12    1
     2    12    10    1
     3    10    13    1
     4    10     6    1
     5    13    14    1
     6     6     8   am
     7     1     5   ar
     8     2     5   ar
     9    18    19    1
    10    21    22   ar
    11    23    22    1
    12    24    25   ar
    13    26    20   ar
    14     8     1    1
    15     3     4   ar
    16    19    20    1
    17    17     2    1
    18    17    19    1
    19     6     7    2
    20     1     3   ar
    21     2     4   ar
    22    20    21   ar
    23    22    24   ar
    24    25    26   ar
    25    17    15    2
    26    17    16    2
    27     8     9    1
@<TRIPOS>MOLECULE
MolPort-007-723-531 6818343 ChemDiv-E157-6114 MCULE-9466694236 PubChem-22518071 ZINC000006818343 ZINC06818343
 26 27 0 0 0
SMALL
GASTEIGER

@<TRIPOS>ATOM
      1 C          11.6453   41.4191    6.5020 C.ar    1  UNL1        0.1893
      2 C           9.2594   41.4016    6.4286 C.ar    1  UNL1        0.2593
      3 N          11.1564   41.3829    5.2425 N.ar    1  UNL1       -0.1239
      4 N           9.8254   41.3722    5.2026 N.ar    1  UNL1       -0.1187
      5 S          10.4171   41.4404    7.6514 S.2     1  UNL1       -0.0102
      6 C          13.8961   42.5789    6.7027 C.2     1  UNL1        0.2271
      7 O          13.4509   43.6782    6.2788 O.2     1  UNL1       -0.2747
      8 N          13.0386   41.4365    6.8253 N.am    1  UNL1       -0.2627
      9 H          13.4390   40.6006    7.1572 H       1  UNL1        0.1568
     10 C          15.3390   42.4762    7.0820 C.3     1  UNL1        0.0769
     11 C          16.9087   41.7898    8.8967 C.3     1  UNL1        0.0005
     12 C          15.4730   41.7439    8.4080 C.3     1  UNL1        0.0091
     13 C          15.9739   43.8589    7.1725 C.3     1  UNL1        0.0091
     14 C          16.8821   44.1059    5.9824 C.3     1  UNL1        0.0005
     15 O           7.0858   39.9874    7.0596 O.2     1  UNL1       -0.1477
     16 O           6.8323   41.8014    5.4374 O.2     1  UNL1       -0.1477
     17 S           7.5291   41.3779    6.7001 S.O2    1  UNL1        0.1010
     18 C           7.6166   43.8303    7.9230 C.3     1  UNL1        0.1392
     19 N           7.1252   42.4612    7.9988 N.pl3   1  UNL1       -0.1870
     20 C           6.3484   42.0244    9.1325 C.ar    1  UNL1        0.0686
     21 C           4.9464   41.9630    9.0559 C.ar    1  UNL1        0.0119
     22 C           4.1903   41.5438   10.1541 C.ar    1  UNL1       -0.0206
     23 C           2.7088   41.4848   10.0568 C.3     1  UNL1        0.0311
     24 C           4.8272   41.1807   11.3429 C.ar    1  UNL1       -0.0042
     25 C           6.2197   41.2364   11.4333 C.ar    1  UNL1        0.0010
     26 C           6.9748   41.6553   10.3345 C.ar    1  UNL1        0.0161
@<TRIPOS>BOND
     1    11    12    1
     2    12    10    1
     3    10    13    1
     4    10     6    1
     5    13    14    1
     6     6     8   am
     7     1     5   ar
     8     2     5   ar
     9    18    19    1
    10    21    22   ar
    11    23    22    1
    12    24    25   ar
    13    26    20   ar
    14     8     1    1
    15     3     4   ar
    16    19    20    1
    17    17     2    1
    18    17    19    1
    19     6     7    2
    20     1     3   ar
    21     2     4   ar
    22    20    21   ar
    23    22    24   ar
    24    25    26   ar
    25    17    15    2
    26    17    16    2
    27     8     9    1
@<TRIPOS>MOLECULE
MolPort-007-723-531 6818343 ChemDiv-E157-6114 MCULE-9466694236 PubChem-22518071 ZINC000006818343 ZINC06818343
 26 27 0 0 0
SMALL
GASTEIGER

@<TRIPOS>ATOM
      1 C           8.6990   42.4421    9.2195 C.ar    1  UNL1        0.1893
      2 C          10.6707   41.6104    8.1616 C.ar    1  UNL1        0.2593
      3 N           9.8354   42.9419    9.7538 N.ar    1  UNL1       -0.1239
      4 N          10.9347   42.4766    9.1636 N.ar    1  UNL1       -0.1187
      5 S           9.0154   41.3739    7.9588 S.2     1  UNL1       -0.0102
      6 C           6.1783   42.1304    9.2351 C.2     1  UNL1        0.2271
      7 O           6.2143   41.1941    8.3933 O.2     1  UNL1       -0.2747
      8 N           7.3826   42.7765    9.6680 N.am    1  UNL1       -0.2627
      9 H           7.2971   43.5058   10.3238 H       1  UNL1        0.1568
     10 C           4.8567   42.5639    9.7845 C.3     1  UNL1        0.0769
     11 C           4.2863   40.7126   11.3580 C.3     1  UNL1        0.0005
     12 C           3.9715   41.3495   10.0174 C.3     1  UNL1        0.0091
     13 C           4.1738   43.5454    8.8394 C.3     1  UNL1        0.0091
     14 C           5.2060   44.3572    8.0793 C.3     1  UNL1        0.0005
     15 O          11.7762   41.2083    5.7660 O.2     1  UNL1       -0.1477
     16 O          11.7398   39.3294    7.3328 O.2     1  UNL1       -0.1477
     17 S          11.9104   40.8178    7.2112 S.O2    1  UNL1        0.1010
     18 C          14.0397   40.5611    8.9193 C.3     1  UNL1        0.1392
     19 N          13.4815   41.2893    7.7880 N.pl3   1  UNL1       -0.1870
     20 C          14.2096   42.3803    7.1889 C.ar    1  UNL1        0.0686
     21 C          15.5728   42.5700    7.4734 C.ar    1  UNL1        0.0119
     22 C          16.2806   43.6287    6.8976 C.ar    1  UNL1       -0.0206
     23 C          17.7213   43.8155    7.2091 C.3     1  UNL1        0.0311
     24 C          15.6334   44.5114    6.0298 C.ar    1  UNL1       -0.0042
     25 C          14.2792   44.3348    5.7377 C.ar    1  UNL1        0.0010
     26 C          13.5726   43.2757    6.3137 C.ar    1  UNL1        0.0161
@<TRIPOS>BOND
     1    11    12    1
     2    12    10    1
     3    10    13    1
     4    10     6    1
     5    13    14    1
     6     6     8   am
     7     1     5   ar
     8     2     5   ar
     9    18    19    1
    10    21    22   ar
    11    23    22    1
    12    24    25   ar
    13    26    20   ar
    14     8     1    1
    15     3     4   ar
    16    19    20    1
    17    17     2    1
    18    17    19    1
    19     6     7    2
    20     1     3   ar
    21     2     4   ar
    22    20    21   ar
    23    22    24   ar
    24    25    26   ar
    25    17    15    2
    26    17    16    2
    27     8     9    1
@<TRIPOS>MOLECULE
MolPort-007-723-531 6818343 ChemDiv-E157-6114 MCULE-9466694236 PubChem-22518071 ZINC000006818343 ZINC06818343
 26 27 0 0 0
SMALL
GASTEIGER

@<TRIPOS>ATOM
      1 C          11.1136   39.6957    9.7502 C.ar    1  UNL1        0.1893
      2 C          13.3160   38.9912   10.3433 C.ar    1  UNL1        0.2593
      3 N          11.5796   40.3024   10.8644 N.ar    1  UNL1       -0.1239
      4 N          12.8078   39.9080   11.1950 N.ar    1  UNL1       -0.1187
      5 S          12.2330   38.6160    9.1089 S.2     1  UNL1       -0.0102
      6 C           9.4654   41.1022    8.4247 C.2     1  UNL1        0.2271
      7 O          10.3021   42.0205    8.2169 O.2     1  UNL1       -0.2747
      8 N           9.8242   39.9378    9.1802 N.am    1  UNL1       -0.2627
      9 H           9.1305   39.2527    9.3171 H       1  UNL1        0.1568
     10 C           8.0835   41.2383    7.8696 C.3     1  UNL1        0.0769
     11 C           8.1353   39.8102    5.8236 C.3     1  UNL1        0.0005
     12 C           7.6425   39.9193    7.2544 C.3     1  UNL1        0.0091
     13 C           8.0248   42.3538    6.8327 C.3     1  UNL1        0.0091
     14 C           6.8835   43.3054    7.1396 C.3     1  UNL1        0.0005
     15 O          15.0960   37.1919    9.4967 O.2     1  UNL1       -0.1477
     16 O          15.0053   37.6617   11.8962 O.2     1  UNL1       -0.1477
     17 S          14.9019   38.2703   10.5257 S.O2    1  UNL1        0.1010
     18 C          17.3117   39.4137   11.1600 C.3     1  UNL1        0.1392
     19 N          16.1260   39.4874   10.3172 N.pl3   1  UNL1       -0.1870
     20 C          15.9740   40.5549    9.3598 C.ar    1  UNL1        0.0686
     21 C          17.0190   41.4679    9.1370 C.ar    1  UNL1        0.0119
     22 C          16.8736   42.5061    8.2127 C.ar    1  UNL1       -0.0206
     23 C          17.9880   43.4630    7.9891 C.3     1  UNL1        0.0311
     24 C          15.6806   42.6443    7.4995 C.ar    1  UNL1       -0.0042
     25 C          14.6338   41.7442    7.7104 C.ar    1  UNL1        0.0010
     26 C          14.7804   40.7063    8.6345 C.ar    1  UNL1        0.0161
@<TRIPOS>BOND
     1    11    12    1
     2    12    10    1
     3    10    13    1
     4    10     6    1
     5    13    14    1
     6     6     8   am
     7     1     5   ar
     8     2     5   ar
     9    18    19    1
    10    21    22   ar
    11    23    22    1
    12    24    25   ar
    13    26    20   ar
    14     8     1    1
    15     3     4   ar
    16    19    20    1
    17    17     2    1
    18    17    19    1
    19     6     7    2
    20     1     3   ar
    21     2     4   ar
    22    20    21   ar
    23    22    24   ar
    24    25    26   ar
    25    17    15    2
    26    17    16    2
    27     8     9    1
@<TRIPOS>MOLECULE
MolPort-007-723-531 6818343 ChemDiv-E157-6114 MCULE-9466694236 PubChem-22518071 ZINC000006818343 ZINC06818343
 26 27 0 0 0
SMALL
GASTEIGER

@<TRIPOS>ATOM
      1 C           7.5241   42.3627    9.5318 C.ar    1  UNL1        0.1893
      2 C           9.8236   41.7527    9.3343 C.ar    1  UNL1        0.2593
      3 N           8.0254   42.5871    8.2969 N.ar    1  UNL1       -0.1239
      4 N           9.3083   42.2474    8.1880 N.ar    1  UNL1       -0.1187
      5 S           8.6794   41.7161   10.5699 S.2     1  UNL1       -0.0102
      6 C           5.4542   41.9472   10.9440 C.2     1  UNL1        0.2271
      7 O           5.9924   41.0093   11.5900 O.2     1  UNL1       -0.2747
      8 N           6.1747   42.6403    9.9164 N.am    1  UNL1       -0.2627
      9 H           5.7050   43.3620    9.4393 H       1  UNL1        0.1568
     10 C           4.0458   42.3354   11.2632 C.3     1  UNL1        0.0769
     11 C           3.7585   39.8706   11.5279 C.3     1  UNL1        0.0005
     12 C           3.3780   41.2346   12.0725 C.3     1  UNL1        0.0091
     13 C           3.2580   42.6089    9.9874 C.3     1  UNL1        0.0091
     14 C           2.8727   41.3066    9.3109 C.3     1  UNL1        0.0005
     15 O          11.8076   41.0146   10.9595 O.2     1  UNL1       -0.1477
     16 O          12.3898   42.3129    8.9691 O.2     1  UNL1       -0.1477
     17 S          11.4886   41.2372    9.5076 S.O2    1  UNL1        0.1010
     18 C          12.8499   38.9050    9.0337 C.3     1  UNL1        0.1392
     19 N          11.7369   39.7550    8.6332 N.pl3   1  UNL1       -0.1870
     20 C          10.8890   39.3785    7.5293 C.ar    1  UNL1        0.0686
     21 C          11.1900   39.7992    6.2225 C.ar    1  UNL1        0.0119
     22 C          10.3681   39.4394    5.1508 C.ar    1  UNL1       -0.0206
     23 C          10.7002   39.8928    3.7754 C.3     1  UNL1        0.0311
     24 C           9.2346   38.6542    5.3729 C.ar    1  UNL1       -0.0042
     25 C           8.9234   38.2285    6.6661 C.ar    1  UNL1        0.0010
     26 C           9.7461   38.5885    7.7369 C.ar    1  UNL1        0.0161
@<TRIPOS>BOND
     1    11    12    1
     2    12    10    1
     3    10    13    1
     4    10     6    1
     5    13    14    1
     6     6     8   am
     7     1     5   ar
     8     2     5   ar
     9    18    19    1
    10    21    22   ar
    11    23    22    1
    12    24    25   ar
    13    26    20   ar
    14     8     1    1
    15     3     4   ar
    16    19    20    1
    17    17     2    1
    18    17    19    1
    19     6     7    2
    20     1     3   ar
    21     2     4   ar
    22    20    21   ar
    23    22    24   ar
    24    25    26   ar
    25    17    15    2
    26    17    16    2
    27     8     9    1
@<TRIPOS>MOLECULE
MolPort-007-723-531 6818343 ChemDiv-E157-6114 MCULE-9466694236 PubChem-22518071 ZINC000006818343 ZINC06818343
 26 27 0 0 0
SMALL
GASTEIGER

@<TRIPOS>ATOM
      1 C           6.4684   40.3399    6.9589 C.ar    1  UNL1        0.1893
      2 C           8.6885   40.1275    6.1076 C.ar    1  UNL1        0.2593
      3 N           6.5986   39.3294    6.0708 N.ar    1  UNL1       -0.1239
      4 N           7.8371   39.2124    5.5958 N.ar    1  UNL1       -0.1187
      5 S           7.9209   41.1534    7.2010 S.2     1  UNL1       -0.0102
      6 C           5.1343   41.0810    8.9893 C.2     1  UNL1        0.2271
      7 O           6.1534   41.1499    9.7263 O.2     1  UNL1       -0.2747
      8 N           5.2452   40.6819    7.6168 N.am    1  UNL1       -0.2627
      9 H           4.4165   40.6400    7.0869 H       1  UNL1        0.1568
     10 C           3.7969   41.4242    9.5637 C.3     1  UNL1        0.0769
     11 C           4.6902   43.5822    8.6843 C.3     1  UNL1        0.0005
     12 C           3.5261   42.9103    9.3882 C.3     1  UNL1        0.0091
     13 C           3.7273   41.0422   11.0376 C.3     1  UNL1        0.0091
     14 C           2.8053   41.9849   11.7882 C.3     1  UNL1        0.0005
     15 O          10.6547   41.5704    5.0239 O.2     1  UNL1       -0.1477
     16 O          10.6935   39.1491    4.6739 O.2     1  UNL1       -0.1477
     17 S          10.3788   40.2376    5.6616 S.O2    1  UNL1        0.1010
     18 C          10.9145   39.1598    8.1251 C.3     1  UNL1        0.1392
     19 N          11.3709   40.0649    7.0791 N.pl3   1  UNL1       -0.1870
     20 C          12.5977   40.8062    7.2368 C.ar    1  UNL1        0.0686
     21 C          12.8924   41.8872    6.3884 C.ar    1  UNL1        0.0119
     22 C          14.0823   42.6054    6.5361 C.ar    1  UNL1       -0.0206
     23 C          14.3789   43.7454    5.6306 C.3     1  UNL1        0.0311
     24 C          14.9926   42.2511    7.5344 C.ar    1  UNL1       -0.0042
     25 C          14.7127   41.1794    8.3850 C.ar    1  UNL1        0.0010
     26 C          13.5225   40.4622    8.2367 C.ar    1  UNL1        0.0161
@<TRIPOS>BOND
     1    11    12    1
     2    12    10    1
     3    10    13    1
     4    10     6    1
     5    13    14    1
     6     6     8   am
     7     1     5   ar
     8     2     5   ar
     9    18    19    1
    10    21    22   ar
    11    23    22    1
    12    24    25   ar
    13    26    20   ar
    14     8     1    1
    15     3     4   ar
    16    19    20    1
    17    17     2    1
    18    17    19    1
    19     6     7    2
    20     1     3   ar
    21     2     4   ar
    22    20    21   ar
    23    22    24   ar
    24    25    26   ar
    25    17    15    2
    26    17    16    2
    27     8     9    1
@<TRIPOS>MOLECULE
MolPort-007-723-531 6818343 ChemDiv-E157-6114 MCULE-9466694236 PubChem-22518071 ZINC000006818343 ZINC06818343
 26 27 0 0 0
SMALL
GASTEIGER

@<TRIPOS>ATOM
      1 C          11.6441   39.4290    8.8464 C.ar    1  UNL1        0.1893
      2 C           9.7979   40.5824    7.8665 C.ar    1  UNL1        0.2593
      3 N          10.8531   38.6237    8.1031 N.ar    1  UNL1       -0.1239
      4 N           9.8230   39.2678    7.5578 N.ar    1  UNL1       -0.1187
      5 S          11.0870   41.0164    8.8601 S.2     1  UNL1       -0.0102
      6 C          14.1355   39.5089    9.3342 C.2     1  UNL1        0.2271
      7 O          14.3476   40.4166    8.4871 O.2     1  UNL1       -0.2747
      8 N          12.8150   38.9902    9.5409 N.am    1  UNL1       -0.2627
      9 H          12.7059   38.2780   10.2117 H       1  UNL1        0.1568
     10 C          15.2831   38.9745   10.1302 C.3     1  UNL1        0.0769
     11 C          14.5887   37.3428   11.8863 C.3     1  UNL1        0.0005
     12 C          14.8677   38.8030   11.5831 C.3     1  UNL1        0.0091
     13 C          16.4894   39.9006   10.0287 C.3     1  UNL1        0.0091
     14 C          17.6559   39.3433   10.8230 C.3     1  UNL1        0.0005
     15 O           8.7175   41.9433    5.8409 O.2     1  UNL1       -0.1477
     16 O           8.6952   42.9869    8.0538 O.2     1  UNL1       -0.1477
     17 S           8.5558   41.6865    7.3130 S.O2    1  UNL1        0.1010
     18 C           6.3771   40.2131    6.5389 C.3     1  UNL1        0.1392
     19 N           6.9867   40.9966    7.6048 N.pl3   1  UNL1       -0.1870
     20 C           6.2898   41.2052    8.8498 C.ar    1  UNL1        0.0686
     21 C           4.8855   41.2501    8.8827 C.ar    1  UNL1        0.0119
     22 C           4.2070   41.4561   10.0872 C.ar    1  UNL1       -0.0206
     23 C           2.7219   41.5013   10.1047 C.3     1  UNL1        0.0311
     24 C           4.9248   41.6199   11.2741 C.ar    1  UNL1       -0.0042
     25 C           6.3206   41.5772   11.2564 C.ar    1  UNL1        0.0010
     26 C           6.9980   41.3708   10.0517 C.ar    1  UNL1        0.0161
@<TRIPOS>BOND
     1    11    12    1
     2    12    10    1
     3    10    13    1
     4    10     6    1
     5    13    14    1
     6     6     8   am
     7     1     5   ar
     8     2     5   ar
     9    18    19    1
    10    21    22   ar
    11    23    22    1
    12    24    25   ar
    13    26    20   ar
    14     8     1    1
    15     3     4   ar
    16    19    20    1
    17    17     2    1
    18    17    19    1
    19     6     7    2
    20     1     3   ar
    21     2     4   ar
    22    20    21   ar
    23    22    24   ar
    24    25    26   ar
    25    17    15    2
    26    17    16    2
    27     8     9    1
