@<TRIPOS>MOLECULE
MolPort-002-656-088 9348381 CSSS00160703797 LN00744611 MCULE-6543181931 PubChem-4971255 ZINC000009348381
 34 38 0 0 0
SMALL
GASTEIGER

@<TRIPOS>ATOM
      1 C           6.9624   41.0900    9.1456 C.ar    1  UNL1        0.0897
      2 C           8.1275   41.0775    8.4005 C.ar    1  UNL1        0.0700
      3 C           8.5935   42.0568   10.3162 C.ar    1  UNL1        0.0978
      4 C           7.2593   41.6980   10.3249 C.ar    1  UNL1        0.0874
      5 C           5.0479   41.4376   11.0739 C.ar    1  UNL1        0.3339
      6 C           3.3537   40.3708    9.6544 C.3     1  UNL1        0.1382
      7 C           5.6650   40.6495    8.9001 C.ar    1  UNL1        0.2671
      8 C           6.6917   42.5199   12.5591 C.3     1  UNL1        0.1351
      9 N           9.1212   41.6687    9.1265 N.ar    1  UNL1       -0.3035
     10 N           6.3300   41.8769   11.3007 N.ar    1  UNL1       -0.2776
     11 N           4.7210   40.8281    9.8809 N.ar    1  UNL1       -0.2467
     12 O           4.1638   41.5950   11.9632 O.2     1  UNL1       -0.2462
     13 O           5.3663   40.1019    7.8041 O.2     1  UNL1       -0.2667
     14 C           8.2564   40.5659    7.0267 C.ar    1  UNL1        0.0163
     15 C           8.1098   41.4369    5.9378 C.ar    1  UNL1        0.0014
     16 C           8.2307   40.9513    4.6325 C.ar    1  UNL1        0.0000
     17 C           8.5026   39.5965    4.4127 C.ar    1  UNL1        0.0000
     18 C           8.6508   38.7252    5.4976 C.ar    1  UNL1        0.0000
     19 C           8.5254   39.2080    6.8027 C.ar    1  UNL1        0.0014
     20 C          10.5157   41.8107    8.7849 C.ar    1  UNL1        0.0642
     21 C          11.2567   42.9289    9.2013 C.ar    1  UNL1        0.0188
     22 C          12.5932   43.0814    8.8236 C.ar    1  UNL1        0.0162
     23 C          13.2111   42.1262    8.0122 C.ar    1  UNL1        0.0507
     24 C          12.4759   41.0103    7.5860 C.ar    1  UNL1        0.0162
     25 C          11.1399   40.8561    7.9665 C.ar    1  UNL1        0.0188
     26 C          15.0895   43.3173    6.7349 C.2     1  UNL1        0.2842
     27 N          14.5809   42.3236    7.6366 N.am    1  UNL1       -0.2779
     28 O          14.3186   44.1472    6.1830 O.2     1  UNL1       -0.2665
     29 H          15.2410   41.7141    8.0392 H       1  UNL1        0.1553
     30 C          16.5316   43.3915    6.4747 C.ar    1  UNL1        0.1988
     31 C          17.5207   42.9004    7.3018 C.ar    1  UNL1        0.0455
     32 C          18.7055   43.2007    6.6530 C.ar    1  UNL1        0.0440
     33 C          18.3607   43.8550    5.4819 C.ar    1  UNL1        0.1798
     34 O          17.0540   43.9501    5.4128 O.2     1  UNL1       -0.4458
@<TRIPOS>BOND
     1     2    14    1
     2     2     9   ar
     3    15    16   ar
     4    17    18   ar
     5    19    14   ar
     6     4    10   ar
     7     4     1   ar
     8     5    11   ar
     9     6    11    1
    10     7     1   ar
    11     8    10    1
    12    21    22   ar
    13    23    24   ar
    14    23    27    1
    15    25    20   ar
    16    26    30    1
    17    30    34   ar
    18    31    32   ar
    19    33    34   ar
    20     9     3   ar
    21     9    20    1
    22    10     5   ar
    23    11     7   ar
    24    27    26   am
    25     1     2   ar
    26    14    15   ar
    27    16    17   ar
    28    18    19   ar
    29     3     4   ar
    30     5    12    2
    31     7    13    2
    32    20    21   ar
    33    22    23   ar
    34    24    25   ar
    35    26    28    2
    36    30    31   ar
    37    32    33   ar
    38    27    29    1
@<TRIPOS>MOLECULE
MolPort-002-656-088 9348381 CSSS00160703797 LN00744611 MCULE-6543181931 PubChem-4971255 ZINC000009348381
 34 38 0 0 0
SMALL
GASTEIGER

@<TRIPOS>ATOM
      1 C           6.0606   41.6519    9.7350 C.ar    1  UNL1        0.0897
      2 C           7.1756   42.0733    9.0336 C.ar    1  UNL1        0.0700
      3 C           7.8972   41.0485   10.8434 C.ar    1  UNL1        0.0978
      4 C           6.5158   41.0227   10.8510 C.ar    1  UNL1        0.0874
      5 C           4.3196   40.5882   11.5632 C.ar    1  UNL1        0.3339
      6 C           2.3937   41.3410   10.2412 C.3     1  UNL1        0.1382
      7 C           4.6911   41.7761    9.5190 C.ar    1  UNL1        0.2671
      8 C           6.2014   39.7993   12.9471 C.3     1  UNL1        0.1351
      9 N           8.2952   41.6967    9.7183 N.ar    1  UNL1       -0.3035
     10 N           5.6738   40.4806   11.7701 N.ar    1  UNL1       -0.2776
     11 N           3.8349   41.2318   10.4440 N.ar    1  UNL1       -0.2467
     12 O           3.5148   40.0962   12.4042 O.2     1  UNL1       -0.2462
     13 O           4.2505   42.3743    8.5001 O.2     1  UNL1       -0.2667
     14 C           7.1544   42.8534    7.7859 C.ar    1  UNL1        0.0163
     15 C           7.2969   42.2046    6.5512 C.ar    1  UNL1        0.0014
     16 C           7.2783   42.9452    5.3657 C.ar    1  UNL1        0.0000
     17 C           7.1129   44.3338    5.4110 C.ar    1  UNL1        0.0000
     18 C           6.9690   44.9838    6.6419 C.ar    1  UNL1        0.0000
     19 C           6.9924   44.2457    7.8280 C.ar    1  UNL1        0.0014
     20 C           9.6761   41.8533    9.3306 C.ar    1  UNL1        0.0642
     21 C          10.3903   43.0227    9.6391 C.ar    1  UNL1        0.0188
     22 C          11.7120   43.1851    9.2161 C.ar    1  UNL1        0.0162
     23 C          12.3411   42.1879    8.4663 C.ar    1  UNL1        0.0507
     24 C          11.6323   41.0202    8.1478 C.ar    1  UNL1        0.0162
     25 C          10.3112   40.8563    8.5736 C.ar    1  UNL1        0.0188
     26 C          14.1371   43.2349    6.9639 C.2     1  UNL1        0.2842
     27 N          13.6947   42.3963    8.0410 N.am    1  UNL1       -0.2779
     28 O          13.3138   43.8990    6.2792 O.2     1  UNL1       -0.2665
     29 H          14.3930   41.9139    8.5399 H       1  UNL1        0.1553
     30 C          15.5709   43.3483    6.6740 C.ar    1  UNL1        0.1988
     31 C          16.5908   42.9164    7.4967 C.ar    1  UNL1        0.0455
     32 C          17.7528   43.2350    6.8162 C.ar    1  UNL1        0.0440
     33 C          17.3651   43.8401    5.6323 C.ar    1  UNL1        0.1798
     34 O          16.0549   43.8899    5.5854 O.2     1  UNL1       -0.4458
@<TRIPOS>BOND
     1     2    14    1
     2     2     9   ar
     3    15    16   ar
     4    17    18   ar
     5    19    14   ar
     6     4    10   ar
     7     4     1   ar
     8     5    11   ar
     9     6    11    1
    10     7     1   ar
    11     8    10    1
    12    21    22   ar
    13    23    24   ar
    14    23    27    1
    15    25    20   ar
    16    26    30    1
    17    30    34   ar
    18    31    32   ar
    19    33    34   ar
    20     9     3   ar
    21     9    20    1
    22    10     5   ar
    23    11     7   ar
    24    27    26   am
    25     1     2   ar
    26    14    15   ar
    27    16    17   ar
    28    18    19   ar
    29     3     4   ar
    30     5    12    2
    31     7    13    2
    32    20    21   ar
    33    22    23   ar
    34    24    25   ar
    35    26    28    2
    36    30    31   ar
    37    32    33   ar
    38    27    29    1
@<TRIPOS>MOLECULE
MolPort-002-656-088 9348381 CSSS00160703797 LN00744611 MCULE-6543181931 PubChem-4971255 ZINC000009348381
 34 38 0 0 0
SMALL
GASTEIGER

@<TRIPOS>ATOM
      1 C          12.5568   40.7410    7.9236 C.ar    1  UNL1        0.0897
      2 C          13.6615   40.3093    8.6348 C.ar    1  UNL1        0.0700
      3 C          11.9551   39.0751    9.2758 C.ar    1  UNL1        0.0978
      4 C          11.5084   39.9752    8.3274 C.ar    1  UNL1        0.0874
      5 C          10.0517   41.1168    6.8803 C.ar    1  UNL1        0.3339
      6 C          10.8617   42.9523    5.4668 C.3     1  UNL1        0.1382
      7 C          12.3593   41.7439    6.9786 C.ar    1  UNL1        0.2671
      8 C           9.1615   39.2839    8.2686 C.3     1  UNL1        0.1351
      9 N          13.2841   39.2873    9.4576 N.ar    1  UNL1       -0.3035
     10 N          10.2573   40.1365    7.8211 N.ar    1  UNL1       -0.2776
     11 N          11.0978   41.9130    6.4638 N.ar    1  UNL1       -0.2467
     12 O           8.8973   41.2902    6.3962 O.2     1  UNL1       -0.2462
     13 O          13.3154   42.4774    6.6072 O.2     1  UNL1       -0.2667
     14 C          15.0081   40.8981    8.5598 C.ar    1  UNL1        0.0163
     15 C          15.8809   40.5226    7.5289 C.ar    1  UNL1        0.0014
     16 C          17.1608   41.0804    7.4579 C.ar    1  UNL1        0.0000
     17 C          17.5693   42.0174    8.4134 C.ar    1  UNL1        0.0000
     18 C          16.6998   42.3952    9.4427 C.ar    1  UNL1        0.0000
     19 C          15.4221   41.8348    9.5179 C.ar    1  UNL1        0.0014
     20 C          14.1121   38.4829   10.3230 C.ar    1  UNL1        0.0642
     21 C          14.7833   37.3480    9.8388 C.ar    1  UNL1        0.0188
     22 C          15.5428   36.5473   10.6957 C.ar    1  UNL1        0.0162
     23 C          15.6360   36.8580   12.0549 C.ar    1  UNL1        0.0507
     24 C          14.9627   37.9855   12.5477 C.ar    1  UNL1        0.0162
     25 C          14.2055   38.7883   11.6899 C.ar    1  UNL1        0.0188
     26 C          17.8476   35.9303   12.9642 C.2     1  UNL1        0.2842
     27 N          16.4159   36.0058   12.9045 N.am    1  UNL1       -0.2779
     28 O          18.5664   36.6641   12.2343 O.2     1  UNL1       -0.2665
     29 H          15.9172   35.4106   13.5097 H       1  UNL1        0.1553
     30 C          18.4873   35.0098   13.9108 C.ar    1  UNL1        0.1988
     31 C          18.3946   33.6337   13.8763 C.ar    1  UNL1        0.0455
     32 C          19.1476   33.2015   14.9538 C.ar    1  UNL1        0.0440
     33 C          19.6429   34.3377   15.5718 C.ar    1  UNL1        0.1798
     34 O          19.2254   35.3969   14.9198 O.2     1  UNL1       -0.4458
@<TRIPOS>BOND
     1     2    14    1
     2     2     9   ar
     3    15    16   ar
     4    17    18   ar
     5    19    14   ar
     6     4    10   ar
     7     4     1   ar
     8     5    11   ar
     9     6    11    1
    10     7     1   ar
    11     8    10    1
    12    21    22   ar
    13    23    24   ar
    14    23    27    1
    15    25    20   ar
    16    26    30    1
    17    30    34   ar
    18    31    32   ar
    19    33    34   ar
    20     9     3   ar
    21     9    20    1
    22    10     5   ar
    23    11     7   ar
    24    27    26   am
    25     1     2   ar
    26    14    15   ar
    27    16    17   ar
    28    18    19   ar
    29     3     4   ar
    30     5    12    2
    31     7    13    2
    32    20    21   ar
    33    22    23   ar
    34    24    25   ar
    35    26    28    2
    36    30    31   ar
    37    32    33   ar
    38    27    29    1
@<TRIPOS>MOLECULE
MolPort-002-656-088 9348381 CSSS00160703797 LN00744611 MCULE-6543181931 PubChem-4971255 ZINC000009348381
 34 38 0 0 0
SMALL
GASTEIGER

@<TRIPOS>ATOM
      1 C           6.7548   41.0171    9.1669 C.ar    1  UNL1        0.0897
      2 C           7.9799   40.8850    8.5391 C.ar    1  UNL1        0.0700
      3 C           8.3652   41.7003   10.5472 C.ar    1  UNL1        0.0978
      4 C           7.0025   41.5229   10.4045 C.ar    1  UNL1        0.0874
      5 C           4.7100   41.5245   10.9180 C.ar    1  UNL1        0.3339
      6 C           3.0504   40.7628    9.2782 C.3     1  UNL1        0.1382
      7 C           5.4443   40.7662    8.7701 C.ar    1  UNL1        0.2671
      8 C           6.3150   42.3052   12.6191 C.3     1  UNL1        0.1351
      9 N           8.9600   41.3027    9.3929 N.ar    1  UNL1       -0.3035
     10 N           6.0071   41.7773   11.2945 N.ar    1  UNL1       -0.2776
     11 N           4.4339   41.0220    9.6639 N.ar    1  UNL1       -0.2467
     12 O           3.7655   41.7558   11.7252 O.2     1  UNL1       -0.2462
     13 O           5.1939   40.3165    7.6190 O.2     1  UNL1       -0.2667
     14 C           8.1847   40.4272    7.1555 C.ar    1  UNL1        0.0163
     15 C           8.5295   41.3482    6.1563 C.ar    1  UNL1        0.0014
     16 C           8.7228   40.9142    4.8415 C.ar    1  UNL1        0.0000
     17 C           8.5766   39.5595    4.5236 C.ar    1  UNL1        0.0000
     18 C           8.2340   38.6378    5.5191 C.ar    1  UNL1        0.0000
     19 C           8.0356   39.0706    6.8327 C.ar    1  UNL1        0.0014
     20 C          10.3891   41.2733    9.1975 C.ar    1  UNL1        0.0642
     21 C          11.1043   40.0651    9.2374 C.ar    1  UNL1        0.0188
     22 C          12.4944   40.0527    9.0964 C.ar    1  UNL1        0.0162
     23 C          13.1976   41.2481    8.9257 C.ar    1  UNL1        0.0507
     24 C          12.4914   42.4595    8.8921 C.ar    1  UNL1        0.0162
     25 C          11.1006   42.4717    9.0299 C.ar    1  UNL1        0.0188
     26 C          15.4517   42.0887    8.0362 C.2     1  UNL1        0.2842
     27 N          14.6247   41.1952    8.7958 N.am    1  UNL1       -0.2779
     28 O          14.9493   43.0519    7.3978 O.2     1  UNL1       -0.2665
     29 H          15.0850   40.4707    9.2779 H       1  UNL1        0.1553
     30 C          16.9067   41.9002    8.0270 C.ar    1  UNL1        0.1988
     31 C          17.5935   40.9354    8.7348 C.ar    1  UNL1        0.0455
     32 C          18.9244   41.1465    8.4202 C.ar    1  UNL1        0.0440
     33 C          18.9594   42.2229    7.5493 C.ar    1  UNL1        0.1798
     34 O          17.7350   42.6452    7.3404 O.2     1  UNL1       -0.4458
@<TRIPOS>BOND
     1     2    14    1
     2     2     9   ar
     3    15    16   ar
     4    17    18   ar
     5    19    14   ar
     6     4    10   ar
     7     4     1   ar
     8     5    11   ar
     9     6    11    1
    10     7     1   ar
    11     8    10    1
    12    21    22   ar
    13    23    24   ar
    14    23    27    1
    15    25    20   ar
    16    26    30    1
    17    30    34   ar
    18    31    32   ar
    19    33    34   ar
    20     9     3   ar
    21     9    20    1
    22    10     5   ar
    23    11     7   ar
    24    27    26   am
    25     1     2   ar
    26    14    15   ar
    27    16    17   ar
    28    18    19   ar
    29     3     4   ar
    30     5    12    2
    31     7    13    2
    32    20    21   ar
    33    22    23   ar
    34    24    25   ar
    35    26    28    2
    36    30    31   ar
    37    32    33   ar
    38    27    29    1
@<TRIPOS>MOLECULE
MolPort-002-656-088 9348381 CSSS00160703797 LN00744611 MCULE-6543181931 PubChem-4971255 ZINC000009348381
 34 38 0 0 0
SMALL
GASTEIGER

@<TRIPOS>ATOM
      1 C           3.3711   42.1879   10.8835 C.ar    1  UNL1        0.0897
      2 C           4.1988   42.2846    9.7798 C.ar    1  UNL1        0.0700
      3 C           4.4809   40.2727   10.6273 C.ar    1  UNL1        0.0978
      4 C           3.5537   40.9440   11.4011 C.ar    1  UNL1        0.0874
      5 C           2.0067   41.3752   13.1157 C.ar    1  UNL1        0.3339
      6 C           0.8807   43.5497   13.2799 C.3     1  UNL1        0.1382
      7 C           2.4920   43.0734   11.5007 C.ar    1  UNL1        0.2671
      8 C           3.0963   39.1656   13.0188 C.3     1  UNL1        0.1351
      9 N           4.8718   41.1064    9.6291 N.ar    1  UNL1       -0.3035
     10 N           2.8846   40.5136   12.5032 N.ar    1  UNL1       -0.2776
     11 N           1.8137   42.6455   12.6151 N.ar    1  UNL1       -0.2467
     12 O           1.3746   41.0013   14.1442 O.2     1  UNL1       -0.2462
     13 O           2.3253   44.2380   11.0470 O.2     1  UNL1       -0.2667
     14 C           4.3696   43.4836    8.9437 C.ar    1  UNL1        0.0163
     15 C           5.6545   43.9848    8.6914 C.ar    1  UNL1        0.0014
     16 C           5.8174   45.1246    7.8985 C.ar    1  UNL1        0.0000
     17 C           4.6982   45.7627    7.3528 C.ar    1  UNL1        0.0000
     18 C           3.4147   45.2639    7.6018 C.ar    1  UNL1        0.0000
     19 C           3.2498   44.1277    8.3981 C.ar    1  UNL1        0.0014
     20 C           5.7807   40.7234    8.5761 C.ar    1  UNL1        0.0642
     21 C           7.1696   40.8705    8.7245 C.ar    1  UNL1        0.0188
     22 C           8.0384   40.5431    7.6803 C.ar    1  UNL1        0.0162
     23 C           7.5353   40.0746    6.4637 C.ar    1  UNL1        0.0507
     24 C           6.1490   39.9319    6.3050 C.ar    1  UNL1        0.0162
     25 C           5.2802   40.2563    7.3506 C.ar    1  UNL1        0.0188
     26 C           9.3220   38.6162    5.3414 C.2     1  UNL1        0.2842
     27 N           8.4581   39.7598    5.4121 N.am    1  UNL1       -0.2779
     28 O           9.3216   37.7461    6.2527 O.2     1  UNL1       -0.2665
     29 H           8.5036   40.3942    4.6607 H       1  UNL1        0.1553
     30 C          10.1962   38.4378    4.1766 C.ar    1  UNL1        0.1988
     31 C           9.8364   38.6617    2.8637 C.ar    1  UNL1        0.0455
     32 C          10.9703   38.3605    2.1300 C.ar    1  UNL1        0.0440
     33 C          11.9390   37.9714    3.0402 C.ar    1  UNL1        0.1798
     34 O          11.4375   38.0300    4.2512 O.2     1  UNL1       -0.4458
@<TRIPOS>BOND
     1     2    14    1
     2     2     9   ar
     3    15    16   ar
     4    17    18   ar
     5    19    14   ar
     6     4    10   ar
     7     4     1   ar
     8     5    11   ar
     9     6    11    1
    10     7     1   ar
    11     8    10    1
    12    21    22   ar
    13    23    24   ar
    14    23    27    1
    15    25    20   ar
    16    26    30    1
    17    30    34   ar
    18    31    32   ar
    19    33    34   ar
    20     9     3   ar
    21     9    20    1
    22    10     5   ar
    23    11     7   ar
    24    27    26   am
    25     1     2   ar
    26    14    15   ar
    27    16    17   ar
    28    18    19   ar
    29     3     4   ar
    30     5    12    2
    31     7    13    2
    32    20    21   ar
    33    22    23   ar
    34    24    25   ar
    35    26    28    2
    36    30    31   ar
    37    32    33   ar
    38    27    29    1
@<TRIPOS>MOLECULE
MolPort-002-656-088 9348381 CSSS00160703797 LN00744611 MCULE-6543181931 PubChem-4971255 ZINC000009348381
 34 38 0 0 0
SMALL
GASTEIGER

@<TRIPOS>ATOM
      1 C          11.3107   41.8114    8.4552 C.ar    1  UNL1        0.0897
      2 C           9.9469   41.9720    8.6191 C.ar    1  UNL1        0.0700
      3 C          10.6938   40.9153   10.3999 C.ar    1  UNL1        0.0978
      4 C          11.7623   41.1566    9.5579 C.ar    1  UNL1        0.0874
      5 C          13.9614   41.1769    8.7315 C.ar    1  UNL1        0.3339
      6 C          14.4803   42.1830    6.5538 C.3     1  UNL1        0.1382
      7 C          12.1992   42.1534    7.4396 C.ar    1  UNL1        0.2671
      8 C          13.5210   40.1469   10.9278 C.3     1  UNL1        0.1351
      9 N           9.5789   41.4231    9.8137 N.ar    1  UNL1       -0.3035
     10 N          13.0729   40.8359    9.7227 N.ar    1  UNL1       -0.2776
     11 N          13.5243   41.8316    7.5991 N.ar    1  UNL1       -0.2467
     12 O          15.1849   40.8871    8.8581 O.2     1  UNL1       -0.2462
     13 O          11.7951   42.7427    6.4006 O.2     1  UNL1       -0.2667
     14 C           9.0352   42.5801    7.6369 C.ar    1  UNL1        0.0163
     15 C           7.9956   43.4158    8.0691 C.ar    1  UNL1        0.0014
     16 C           7.1283   43.9926    7.1367 C.ar    1  UNL1        0.0000
     17 C           7.3004   43.7396    5.7714 C.ar    1  UNL1        0.0000
     18 C           8.3380   42.9071    5.3371 C.ar    1  UNL1        0.0000
     19 C           9.2027   42.3258    6.2680 C.ar    1  UNL1        0.0014
     20 C           8.2771   41.4240   10.4358 C.ar    1  UNL1        0.0642
     21 C           7.1213   41.1032    9.7050 C.ar    1  UNL1        0.0188
     22 C           5.8600   41.1551   10.3038 C.ar    1  UNL1        0.0162
     23 C           5.7282   41.5407   11.6404 C.ar    1  UNL1        0.0507
     24 C           6.8769   41.8698   12.3750 C.ar    1  UNL1        0.0162
     25 C           8.1390   41.8148   11.7769 C.ar    1  UNL1        0.0188
     26 C           3.2266   42.1054   11.5984 C.2     1  UNL1        0.2842
     27 N           4.4159   41.5926   12.2163 N.am    1  UNL1       -0.2779
     28 O           3.2521   42.5654   10.4257 O.2     1  UNL1       -0.2665
     29 H           4.3211   41.2398   13.1305 H       1  UNL1        0.1553
     30 C           1.9543   42.0650   12.3280 C.ar    1  UNL1        0.1988
     31 C           1.6132   41.1389   13.2921 C.ar    1  UNL1        0.0455
     32 C           0.3353   41.4937   13.6868 C.ar    1  UNL1        0.0440
     33 C          -0.0165   42.6042   12.9375 C.ar    1  UNL1        0.1798
     34 O           0.9763   42.9135   12.1375 O.2     1  UNL1       -0.4458
@<TRIPOS>BOND
     1     2    14    1
     2     2     9   ar
     3    15    16   ar
     4    17    18   ar
     5    19    14   ar
     6     4    10   ar
     7     4     1   ar
     8     5    11   ar
     9     6    11    1
    10     7     1   ar
    11     8    10    1
    12    21    22   ar
    13    23    24   ar
    14    23    27    1
    15    25    20   ar
    16    26    30    1
    17    30    34   ar
    18    31    32   ar
    19    33    34   ar
    20     9     3   ar
    21     9    20    1
    22    10     5   ar
    23    11     7   ar
    24    27    26   am
    25     1     2   ar
    26    14    15   ar
    27    16    17   ar
    28    18    19   ar
    29     3     4   ar
    30     5    12    2
    31     7    13    2
    32    20    21   ar
    33    22    23   ar
    34    24    25   ar
    35    26    28    2
    36    30    31   ar
    37    32    33   ar
    38    27    29    1
@<TRIPOS>MOLECULE
MolPort-002-656-088 9348381 CSSS00160703797 LN00744611 MCULE-6543181931 PubChem-4971255 ZINC000009348381
 34 38 0 0 0
SMALL
GASTEIGER

@<TRIPOS>ATOM
      1 C          14.9175   41.9926    7.9362 C.ar    1  UNL1        0.0897
      2 C          13.8255   41.4250    8.5669 C.ar    1  UNL1        0.0700
      3 C          13.0618   43.0288    7.2668 C.ar    1  UNL1        0.0978
      4 C          14.4367   42.9826    7.1378 C.ar    1  UNL1        0.0874
      5 C          16.6055   43.5203    6.4124 C.ar    1  UNL1        0.3339
      6 C          18.5578   42.3002    7.2628 C.3     1  UNL1        0.1382
      7 C          16.2880   41.7564    7.9984 C.ar    1  UNL1        0.2671
      8 C          14.6955   44.7926    5.5112 C.3     1  UNL1        0.1351
      9 N          12.6937   42.0637    8.1486 N.ar    1  UNL1       -0.3035
     10 N          15.2515   43.7504    6.3670 N.ar    1  UNL1       -0.2776
     11 N          17.1169   42.5290    7.2232 N.ar    1  UNL1       -0.2467
     12 O          17.3856   44.2224    5.7084 O.2     1  UNL1       -0.2462
     13 O          16.7539   40.8563    8.7486 O.2     1  UNL1       -0.2667
     14 C          13.8832   40.3502    9.5705 C.ar    1  UNL1        0.0163
     15 C          14.8756   39.3635    9.4845 C.ar    1  UNL1        0.0014
     16 C          14.9300   38.3414   10.4367 C.ar    1  UNL1        0.0000
     17 C          13.9968   38.3056   11.4785 C.ar    1  UNL1        0.0000
     18 C          13.0061   39.2898   11.5677 C.ar    1  UNL1        0.0000
     19 C          12.9472   40.3093   10.6140 C.ar    1  UNL1        0.0014
     20 C          11.3221   41.7623    8.4790 C.ar    1  UNL1        0.0642
     21 C          10.5451   40.9222    7.6644 C.ar    1  UNL1        0.0188
     22 C           9.2033   40.6761    7.9660 C.ar    1  UNL1        0.0162
     23 C           8.6086   41.2745    9.0800 C.ar    1  UNL1        0.0507
     24 C           9.3757   42.1206    9.8944 C.ar    1  UNL1        0.0162
     25 C          10.7189   42.3642    9.5944 C.ar    1  UNL1        0.0188
     26 C           6.1546   41.9605    9.3731 C.2     1  UNL1        0.2842
     27 N           7.2261   41.0063    9.3502 N.am    1  UNL1       -0.2779
     28 O           6.3661   43.1787    9.1301 O.2     1  UNL1       -0.2665
     29 H           6.9872   40.0702    9.5398 H       1  UNL1        0.1553
     30 C           4.7865   41.5093    9.6510 C.ar    1  UNL1        0.1988
     31 C           3.6345   42.1249    9.2065 C.ar    1  UNL1        0.0455
     32 C           2.6034   41.3545    9.7145 C.ar    1  UNL1        0.0440
     33 C           3.1931   40.3285   10.4341 C.ar    1  UNL1        0.1798
     34 O           4.4974   40.4567   10.3729 O.2     1  UNL1       -0.4458
@<TRIPOS>BOND
     1     2    14    1
     2     2     9   ar
     3    15    16   ar
     4    17    18   ar
     5    19    14   ar
     6     4    10   ar
     7     4     1   ar
     8     5    11   ar
     9     6    11    1
    10     7     1   ar
    11     8    10    1
    12    21    22   ar
    13    23    24   ar
    14    23    27    1
    15    25    20   ar
    16    26    30    1
    17    30    34   ar
    18    31    32   ar
    19    33    34   ar
    20     9     3   ar
    21     9    20    1
    22    10     5   ar
    23    11     7   ar
    24    27    26   am
    25     1     2   ar
    26    14    15   ar
    27    16    17   ar
    28    18    19   ar
    29     3     4   ar
    30     5    12    2
    31     7    13    2
    32    20    21   ar
    33    22    23   ar
    34    24    25   ar
    35    26    28    2
    36    30    31   ar
    37    32    33   ar
    38    27    29    1
@<TRIPOS>MOLECULE
MolPort-002-656-088 9348381 CSSS00160703797 LN00744611 MCULE-6543181931 PubChem-4971255 ZINC000009348381
 34 38 0 0 0
SMALL
GASTEIGER

@<TRIPOS>ATOM
      1 C          10.3932   40.9411    9.0865 C.ar    1  UNL1        0.0897
      2 C           9.6323   41.5828   10.0467 C.ar    1  UNL1        0.0700
      3 C          10.6958   39.9396   11.0540 C.ar    1  UNL1        0.0978
      4 C          11.0441   39.9274    9.7171 C.ar    1  UNL1        0.0874
      5 C          12.0713   39.2704    7.7090 C.ar    1  UNL1        0.3339
      6 C          11.6167   40.4617    5.6120 C.3     1  UNL1        0.1382
      7 C          10.5639   41.1292    7.7179 C.ar    1  UNL1        0.2671
      8 C          12.5794   38.0226    9.7739 C.3     1  UNL1        0.1351
      9 N           9.8264   40.9647   11.2484 N.ar    1  UNL1       -0.3035
     10 N          11.8871   39.0887    9.0585 N.ar    1  UNL1       -0.2776
     11 N          11.4131   40.2849    7.0463 N.ar    1  UNL1       -0.2467
     12 O          12.8468   38.5021    7.0722 O.2     1  UNL1       -0.2462
     13 O           9.9527   42.0511    7.1124 O.2     1  UNL1       -0.2667
     14 C           8.7170   42.7081    9.7983 C.ar    1  UNL1        0.0163
     15 C           7.4874   42.4844    9.1630 C.ar    1  UNL1        0.0014
     16 C           6.6182   43.5532    8.9254 C.ar    1  UNL1        0.0000
     17 C           6.9733   44.8459    9.3259 C.ar    1  UNL1        0.0000
     18 C           8.1993   45.0719    9.9615 C.ar    1  UNL1        0.0000
     19 C           9.0714   44.0056   10.1952 C.ar    1  UNL1        0.0014
     20 C           9.3009   41.3347   12.5401 C.ar    1  UNL1        0.0642
     21 C           8.2911   42.3029   12.6647 C.ar    1  UNL1        0.0188
     22 C           7.8238   42.6901   13.9232 C.ar    1  UNL1        0.0162
     23 C           8.3653   42.1267   15.0816 C.ar    1  UNL1        0.0507
     24 C           9.3792   41.1644   14.9660 C.ar    1  UNL1        0.0162
     25 C           9.8445   40.7748   13.7070 C.ar    1  UNL1        0.0188
     26 C           7.0485   41.8012   17.2585 C.2     1  UNL1        0.2842
     27 N           7.8672   42.5581   16.3553 N.am    1  UNL1       -0.2779
     28 O           6.6966   40.6233   16.9822 O.2     1  UNL1       -0.2665
     29 H           8.1125   43.4682   16.6395 H       1  UNL1        0.1553
     30 C           6.6404   42.3926   18.5377 C.ar    1  UNL1        0.1988
     31 C           5.4574   42.1336   19.1985 C.ar    1  UNL1        0.0455
     32 C           5.5130   42.9117   20.3414 C.ar    1  UNL1        0.0440
     33 C           6.7184   43.5924   20.2986 C.ar    1  UNL1        0.1798
     34 O           7.3620   43.2561   19.2058 O.2     1  UNL1       -0.4458
@<TRIPOS>BOND
     1     2    14    1
     2     2     9   ar
     3    15    16   ar
     4    17    18   ar
     5    19    14   ar
     6     4    10   ar
     7     4     1   ar
     8     5    11   ar
     9     6    11    1
    10     7     1   ar
    11     8    10    1
    12    21    22   ar
    13    23    24   ar
    14    23    27    1
    15    25    20   ar
    16    26    30    1
    17    30    34   ar
    18    31    32   ar
    19    33    34   ar
    20     9     3   ar
    21     9    20    1
    22    10     5   ar
    23    11     7   ar
    24    27    26   am
    25     1     2   ar
    26    14    15   ar
    27    16    17   ar
    28    18    19   ar
    29     3     4   ar
    30     5    12    2
    31     7    13    2
    32    20    21   ar
    33    22    23   ar
    34    24    25   ar
    35    26    28    2
    36    30    31   ar
    37    32    33   ar
    38    27    29    1
@<TRIPOS>MOLECULE
MolPort-002-656-088 9348381 CSSS00160703797 LN00744611 MCULE-6543181931 PubChem-4971255 ZINC000009348381
 34 38 0 0 0
SMALL
GASTEIGER

@<TRIPOS>ATOM
      1 C          14.8373   42.0823    7.9228 C.ar    1  UNL1        0.0897
      2 C          13.7036   41.5154    8.4758 C.ar    1  UNL1        0.0700
      3 C          13.0571   43.2964    7.3552 C.ar    1  UNL1        0.0978
      4 C          14.4287   43.1818    7.2351 C.ar    1  UNL1        0.0874
      5 C          16.6370   43.6644    6.5949 C.ar    1  UNL1        0.3339
      6 C          18.4998   42.2419    7.3228 C.3     1  UNL1        0.1382
      7 C          16.1902   41.7582    7.9714 C.ar    1  UNL1        0.2671
      8 C          14.8203   45.1417    5.8229 C.3     1  UNL1        0.1351
      9 N          12.6184   42.2637    8.1204 N.ar    1  UNL1       -0.3035
     10 N          15.2999   43.9795    6.5625 N.ar    1  UNL1       -0.2776
     11 N          17.0758   42.5603    7.2951 N.ar    1  UNL1       -0.2467
     12 O          17.4685   44.3916    5.9810 O.2     1  UNL1       -0.2462
     13 O          16.5899   40.7541    8.6211 O.2     1  UNL1       -0.2667
     14 C          13.6814   40.3346    9.3539 C.ar    1  UNL1        0.0163
     15 C          13.4727   40.4895   10.7316 C.ar    1  UNL1        0.0014
     16 C          13.4530   39.3684   11.5665 C.ar    1  UNL1        0.0000
     17 C          13.6371   38.0909   11.0264 C.ar    1  UNL1        0.0000
     18 C          13.8443   37.9331    9.6515 C.ar    1  UNL1        0.0000
     19 C          13.8692   39.0530    8.8164 C.ar    1  UNL1        0.0014
     20 C          11.2262   42.0110    8.4020 C.ar    1  UNL1        0.0642
     21 C          10.6049   42.5488    9.5411 C.ar    1  UNL1        0.0188
     22 C           9.2695   42.2578    9.8312 C.ar    1  UNL1        0.0162
     23 C           8.5331   41.4137    8.9958 C.ar    1  UNL1        0.0507
     24 C           9.1484   40.8667    7.8602 C.ar    1  UNL1        0.0162
     25 C          10.4833   41.1604    7.5682 C.ar    1  UNL1        0.0188
     26 C           6.1051   42.0815    9.4832 C.2     1  UNL1        0.2842
     27 N           7.1686   41.1299    9.3332 N.am    1  UNL1       -0.2779
     28 O           6.3071   43.3125    9.3060 O.2     1  UNL1       -0.2665
     29 H           6.9374   40.1837    9.4768 H       1  UNL1        0.1553
     30 C           4.7545   41.6145    9.8156 C.ar    1  UNL1        0.1988
     31 C           3.7626   41.3185    8.9035 C.ar    1  UNL1        0.0455
     32 C           2.6802   40.9284    9.6724 C.ar    1  UNL1        0.0440
     33 C           3.0820   41.0162   10.9950 C.ar    1  UNL1        0.1798
     34 O           4.3262   41.4304   11.0384 O.2     1  UNL1       -0.4458
@<TRIPOS>BOND
     1     2    14    1
     2     2     9   ar
     3    15    16   ar
     4    17    18   ar
     5    19    14   ar
     6     4    10   ar
     7     4     1   ar
     8     5    11   ar
     9     6    11    1
    10     7     1   ar
    11     8    10    1
    12    21    22   ar
    13    23    24   ar
    14    23    27    1
    15    25    20   ar
    16    26    30    1
    17    30    34   ar
    18    31    32   ar
    19    33    34   ar
    20     9     3   ar
    21     9    20    1
    22    10     5   ar
    23    11     7   ar
    24    27    26   am
    25     1     2   ar
    26    14    15   ar
    27    16    17   ar
    28    18    19   ar
    29     3     4   ar
    30     5    12    2
    31     7    13    2
    32    20    21   ar
    33    22    23   ar
    34    24    25   ar
    35    26    28    2
    36    30    31   ar
    37    32    33   ar
    38    27    29    1
@<TRIPOS>MOLECULE
MolPort-002-656-088 9348381 CSSS00160703797 LN00744611 MCULE-6543181931 PubChem-4971255 ZINC000009348381
 34 38 0 0 0
SMALL
GASTEIGER

@<TRIPOS>ATOM
      1 C           6.5067   41.8068    8.3682 C.ar    1  UNL1        0.0897
      2 C           7.8159   41.4484    8.1034 C.ar    1  UNL1        0.0700
      3 C           7.7388   43.6482    8.1296 C.ar    1  UNL1        0.0978
      4 C           6.4686   43.1659    8.3803 C.ar    1  UNL1        0.0874
      5 C           4.1634   43.1476    8.8328 C.ar    1  UNL1        0.3339
      6 C           2.9370   41.0321    9.0437 C.3     1  UNL1        0.1382
      7 C           5.3390   41.0786    8.5779 C.ar    1  UNL1        0.2671
      8 C           5.3239   45.3139    8.6353 C.3     1  UNL1        0.1351
      9 N           8.5633   42.5821    7.9619 N.ar    1  UNL1       -0.3035
     10 N           5.3208   43.8553    8.6148 N.ar    1  UNL1       -0.2776
     11 N           4.1759   41.7687    8.8143 N.ar    1  UNL1       -0.2467
     12 O           3.0817   43.7642    9.0496 O.2     1  UNL1       -0.2462
     13 O           5.3513   39.8180    8.5500 O.2     1  UNL1       -0.2667
     14 C           8.3071   40.0707    7.9402 C.ar    1  UNL1        0.0163
     15 C           7.7995   39.2627    6.9130 C.ar    1  UNL1        0.0014
     16 C           8.2646   37.9535    6.7583 C.ar    1  UNL1        0.0000
     17 C           9.2403   37.4508    7.6260 C.ar    1  UNL1        0.0000
     18 C           9.7498   38.2554    8.6512 C.ar    1  UNL1        0.0000
     19 C           9.2824   39.5625    8.8103 C.ar    1  UNL1        0.0014
     20 C           9.9867   42.6956    7.7557 C.ar    1  UNL1        0.0642
     21 C          10.5853   42.2662    6.5598 C.ar    1  UNL1        0.0188
     22 C          11.9703   42.3345    6.3893 C.ar    1  UNL1        0.0162
     23 C          12.7849   42.8213    7.4150 C.ar    1  UNL1        0.0507
     24 C          12.1956   43.2452    8.6151 C.ar    1  UNL1        0.0162
     25 C          10.8098   43.1799    8.7845 C.ar    1  UNL1        0.0188
     26 C          14.9328   43.8604    6.4738 C.2     1  UNL1        0.2842
     27 N          14.2030   42.8654    7.2063 N.am    1  UNL1       -0.2779
     28 O          14.3406   44.8347    5.9375 O.2     1  UNL1       -0.2665
     29 H          14.7307   42.1374    7.6073 H       1  UNL1        0.1553
     30 C          16.3933   43.7624    6.3737 C.ar    1  UNL1        0.1988
     31 C          17.2383   43.3400    7.3792 C.ar    1  UNL1        0.0455
     32 C          18.5065   43.4180    6.8312 C.ar    1  UNL1        0.0440
     33 C          18.3504   43.8841    5.5364 C.ar    1  UNL1        0.1798
     34 O          17.0743   44.0786    5.3018 O.2     1  UNL1       -0.4458
@<TRIPOS>BOND
     1     2    14    1
     2     2     9   ar
     3    15    16   ar
     4    17    18   ar
     5    19    14   ar
     6     4    10   ar
     7     4     1   ar
     8     5    11   ar
     9     6    11    1
    10     7     1   ar
    11     8    10    1
    12    21    22   ar
    13    23    24   ar
    14    23    27    1
    15    25    20   ar
    16    26    30    1
    17    30    34   ar
    18    31    32   ar
    19    33    34   ar
    20     9     3   ar
    21     9    20    1
    22    10     5   ar
    23    11     7   ar
    24    27    26   am
    25     1     2   ar
    26    14    15   ar
    27    16    17   ar
    28    18    19   ar
    29     3     4   ar
    30     5    12    2
    31     7    13    2
    32    20    21   ar
    33    22    23   ar
    34    24    25   ar
    35    26    28    2
    36    30    31   ar
    37    32    33   ar
    38    27    29    1
