@<TRIPOS>MOLECULE
MolPort-009-692-496 9122126 CSSS03437099267 MCULE-7553924893 PubChem-16952521 ZINC000009122126 ZOJMCCVGMPCENN-UHFFFAOYSA-N
 28 31 0 0 0
SMALL
GASTEIGER

@<TRIPOS>ATOM
      1 C           8.7818   41.8235   13.3547 C.ar    1  UNL1        0.0506
      2 C          10.1645   41.5931   13.1282 C.ar    1  UNL1        0.0160
      3 C          10.6569   41.2398   11.8509 C.ar    1  UNL1        0.0162
      4 C           9.7344   41.1236   10.8111 C.ar    1  UNL1        0.0543
      5 C           8.4103   41.3731   11.0344 C.ar    1  UNL1        0.0193
      6 C           7.6871   41.3034    9.8800 C.ar    1  UNL1        0.0551
      7 C           6.3267   41.6094    9.8713 C.ar    1  UNL1        0.0046
      8 C           5.7364   41.9818   11.1017 C.ar    1  UNL1        0.0002
      9 C           6.5077   42.0550   12.2905 C.ar    1  UNL1        0.0013
     10 C           7.8817   41.7397   12.2614 C.ar    1  UNL1        0.0148
     11 C           8.6575   40.9719    8.8390 C.2     1  UNL1        0.2528
     12 O           8.4159   40.8638    7.6079 O.2     1  UNL1       -0.2696
     13 N           9.9606   40.8345    9.4284 N.am    1  UNL1       -0.2552
     14 C           8.0874   41.3006   15.7472 C.2     1  UNL1        0.2690
     15 O           8.4673   40.0998   15.6861 O.2     1  UNL1       -0.2681
     16 N           8.3612   42.2048   14.6709 N.am    1  UNL1       -0.2791
     17 H           8.2516   43.1667   14.8496 H       1  UNL1        0.1552
     18 C           7.4043   41.7902   16.9492 C.ar    1  UNL1        0.1554
     19 C           6.4256   41.0996   17.6548 C.ar    1  UNL1        0.0398
     20 C           6.1162   41.9795   18.6746 C.ar    1  UNL1        0.0577
     21 C           6.8309   44.2504   19.4388 C.3     1  UNL1        0.1533
     22 C           5.1058   41.7341   19.7419 C.3     1  UNL1        0.0518
     23 N           6.8619   43.0921   18.5616 N.ar    1  UNL1       -0.2527
     24 N           7.6535   42.9901   17.5113 N.ar    1  UNL1       -0.1649
     25 C          11.2387   40.8587    8.7282 C.3     1  UNL1        0.0985
     26 C          11.1510   40.0922    7.4169 C.3     1  UNL1        0.0219
     27 C          11.5389   40.9816    6.2517 C.3     1  UNL1        0.0018
     28 C          12.7930   41.7535    6.6020 C.3     1  UNL1        0.0001
@<TRIPOS>BOND
     1    18    14    1
     2    18    19   ar
     3    14    16   am
     4     2     3   ar
     5     4     5   ar
     6     6     7   ar
     7     6    11    1
     8     8     9   ar
     9    10     1   ar
    10    10     5   ar
    11    11    13   am
    12    25    13    1
    13    25    26    1
    14    26    27    1
    15    27    28    1
    16    20    23   ar
    17    21    23    1
    18    22    20    1
    19    16     1    1
    20    13     4    1
    21    23    24   ar
    22    18    24   ar
    23    14    15    2
    24     1     2   ar
    25     3     4   ar
    26     5     6   ar
    27     7     8   ar
    28     9    10   ar
    29    11    12    2
    30    19    20   ar
    31    16    17    1
@<TRIPOS>MOLECULE
MolPort-009-692-496 9122126 CSSS03437099267 MCULE-7553924893 PubChem-16952521 ZINC000009122126 ZOJMCCVGMPCENN-UHFFFAOYSA-N
 28 31 0 0 0
SMALL
GASTEIGER

@<TRIPOS>ATOM
      1 C          12.2879   39.8910    9.0282 C.ar    1  UNL1        0.0506
      2 C          13.2929   40.8559    8.7549 C.ar    1  UNL1        0.0160
      3 C          14.6207   40.6923    9.2123 C.ar    1  UNL1        0.0162
      4 C          14.9153   39.5436    9.9467 C.ar    1  UNL1        0.0543
      5 C          13.9469   38.6093   10.1812 C.ar    1  UNL1        0.0193
      6 C          14.4509   37.5189   10.8274 C.ar    1  UNL1        0.0551
      7 C          13.6471   36.4094   11.0872 C.ar    1  UNL1        0.0046
      8 C          12.2989   36.4701   10.6633 C.ar    1  UNL1        0.0002
      9 C          11.7957   37.6111    9.9862 C.ar    1  UNL1        0.0013
     10 C          12.6381   38.7145    9.7393 C.ar    1  UNL1        0.0148
     11 C          15.8705   37.8081   11.0178 C.2     1  UNL1        0.2528
     12 O          16.7220   37.0354   11.5312 O.2     1  UNL1       -0.2696
     13 N          16.1691   39.1059   10.4784 N.am    1  UNL1       -0.2552
     14 C           9.9775   40.9571    9.1010 C.2     1  UNL1        0.2690
     15 O          10.2957   41.7900    9.9925 O.2     1  UNL1       -0.2681
     16 N          10.9707   40.1128    8.5079 N.am    1  UNL1       -0.2791
     17 H          10.7292   39.6468    7.6750 H       1  UNL1        0.1552
     18 C           8.5903   40.8852    8.6303 C.ar    1  UNL1        0.1554
     19 C           7.4883   41.4122    9.2939 C.ar    1  UNL1        0.0398
     20 C           6.4450   41.0793    8.4508 C.ar    1  UNL1        0.0577
     21 C           6.1336   39.8901    6.2736 C.3     1  UNL1        0.1533
     22 C           5.0117   41.4106    8.6879 C.3     1  UNL1        0.0518
     23 N           6.9142   40.4107    7.3834 N.ar    1  UNL1       -0.2527
     24 N           8.2239   40.2847    7.4801 N.ar    1  UNL1       -0.1649
     25 C          17.4891   39.6266   10.1456 C.3     1  UNL1        0.0985
     26 C          18.5798   38.7950   10.8041 C.3     1  UNL1        0.0219
     27 C          19.6522   38.4274    9.7971 C.3     1  UNL1        0.0018
     28 C          19.3179   37.0912    9.1694 C.3     1  UNL1        0.0001
@<TRIPOS>BOND
     1    18    14    1
     2    18    19   ar
     3    14    16   am
     4     2     3   ar
     5     4     5   ar
     6     6     7   ar
     7     6    11    1
     8     8     9   ar
     9    10     1   ar
    10    10     5   ar
    11    11    13   am
    12    25    13    1
    13    25    26    1
    14    26    27    1
    15    27    28    1
    16    20    23   ar
    17    21    23    1
    18    22    20    1
    19    16     1    1
    20    13     4    1
    21    23    24   ar
    22    18    24   ar
    23    14    15    2
    24     1     2   ar
    25     3     4   ar
    26     5     6   ar
    27     7     8   ar
    28     9    10   ar
    29    11    12    2
    30    19    20   ar
    31    16    17    1
@<TRIPOS>MOLECULE
MolPort-009-692-496 9122126 CSSS03437099267 MCULE-7553924893 PubChem-16952521 ZINC000009122126 ZOJMCCVGMPCENN-UHFFFAOYSA-N
 28 31 0 0 0
SMALL
GASTEIGER

@<TRIPOS>ATOM
      1 C          10.3621   41.6694    8.9455 C.ar    1  UNL1        0.0506
      2 C           9.6197   40.4954    8.6514 C.ar    1  UNL1        0.0160
      3 C           8.2061   40.4997    8.6272 C.ar    1  UNL1        0.0162
      4 C           7.5577   41.7034    8.9036 C.ar    1  UNL1        0.0543
      5 C           8.2823   42.8327    9.1594 C.ar    1  UNL1        0.0193
      6 C           7.4744   43.9216    9.3077 C.ar    1  UNL1        0.0551
      7 C           8.0176   45.1928    9.4903 C.ar    1  UNL1        0.0046
      8 C           9.4279   45.2983    9.5238 C.ar    1  UNL1        0.0002
      9 C          10.2510   44.1541    9.3605 C.ar    1  UNL1        0.0013
     10 C           9.6666   42.8841    9.1765 C.ar    1  UNL1        0.0148
     11 C           6.1144   43.4168    9.1327 C.2     1  UNL1        0.2528
     12 O           5.0610   44.1069    9.1400 O.2     1  UNL1       -0.2696
     13 N           6.1584   42.0003    8.8964 N.am    1  UNL1       -0.2552
     14 C          12.5580   40.3837    8.8791 C.2     1  UNL1        0.2690
     15 O          12.0080   39.2906    8.5750 O.2     1  UNL1       -0.2681
     16 N          11.7934   41.5937    8.9245 N.am    1  UNL1       -0.2791
     17 H          12.2914   42.4428    8.9429 H       1  UNL1        0.1552
     18 C          14.0007   40.4277    9.1395 C.ar    1  UNL1        0.1554
     19 C          14.8982   41.3071    8.5447 C.ar    1  UNL1        0.0398
     20 C          16.1008   40.9389    9.1174 C.ar    1  UNL1        0.0577
     21 C          16.9220   39.2564   10.7746 C.3     1  UNL1        0.1533
     22 C          17.4183   41.5715    8.8270 C.3     1  UNL1        0.0518
     23 N          15.9071   39.9235    9.9766 N.ar    1  UNL1       -0.2527
     24 N          14.6282   39.6007    9.9999 N.ar    1  UNL1       -0.1649
     25 C           5.0936   41.1789    8.3342 C.3     1  UNL1        0.0985
     26 C           4.1781   40.6561    9.4312 C.3     1  UNL1        0.0219
     27 C           2.9097   41.4835    9.5073 C.3     1  UNL1        0.0018
     28 C           2.7811   42.0836   10.8909 C.3     1  UNL1        0.0001
@<TRIPOS>BOND
     1    18    14    1
     2    18    19   ar
     3    14    16   am
     4     2     3   ar
     5     4     5   ar
     6     6     7   ar
     7     6    11    1
     8     8     9   ar
     9    10     1   ar
    10    10     5   ar
    11    11    13   am
    12    25    13    1
    13    25    26    1
    14    26    27    1
    15    27    28    1
    16    20    23   ar
    17    21    23    1
    18    22    20    1
    19    16     1    1
    20    13     4    1
    21    23    24   ar
    22    18    24   ar
    23    14    15    2
    24     1     2   ar
    25     3     4   ar
    26     5     6   ar
    27     7     8   ar
    28     9    10   ar
    29    11    12    2
    30    19    20   ar
    31    16    17    1
@<TRIPOS>MOLECULE
MolPort-009-692-496 9122126 CSSS03437099267 MCULE-7553924893 PubChem-16952521 ZINC000009122126 ZOJMCCVGMPCENN-UHFFFAOYSA-N
 28 31 0 0 0
SMALL
GASTEIGER

@<TRIPOS>ATOM
      1 C          12.5035   41.3012    7.9553 C.ar    1  UNL1        0.0506
      2 C          13.2788   42.1916    7.1665 C.ar    1  UNL1        0.0160
      3 C          14.6695   42.3430    7.3712 C.ar    1  UNL1        0.0162
      4 C          15.2615   41.5840    8.3807 C.ar    1  UNL1        0.0543
      5 C          14.5109   40.7112    9.1158 C.ar    1  UNL1        0.0193
      6 C          15.2835   39.9943    9.9817 C.ar    1  UNL1        0.0551
      7 C          14.7264   38.9857   10.7669 C.ar    1  UNL1        0.0046
      8 C          13.3381   38.7496   10.6328 C.ar    1  UNL1        0.0002
      9 C          12.5530   39.5018    9.7210 C.ar    1  UNL1        0.0013
     10 C          13.1509   40.5135    8.9418 C.ar    1  UNL1        0.0148
     11 C          16.6469   40.4741    9.7666 C.2     1  UNL1        0.2528
     12 O          17.6843   40.0361   10.3301 O.2     1  UNL1       -0.2696
     13 N          16.6376   41.5024    8.7631 N.am    1  UNL1       -0.2552
     14 C          10.0547   41.8533    8.3772 C.2     1  UNL1        0.2690
     15 O          10.3158   42.8248    9.1375 O.2     1  UNL1       -0.2681
     16 N          11.1037   41.1813    7.6708 N.am    1  UNL1       -0.2791
     17 H          10.8421   40.5888    6.9294 H       1  UNL1        0.1552
     18 C           8.6626   41.4385    8.1740 C.ar    1  UNL1        0.1554
     19 C           7.6093   41.7076    9.0404 C.ar    1  UNL1        0.0398
     20 C           6.5386   41.1101    8.4029 C.ar    1  UNL1        0.0577
     21 C           6.1229   39.8151    6.3048 C.3     1  UNL1        0.1533
     22 C           5.1373   41.0972    8.9095 C.3     1  UNL1        0.0518
     23 N           6.9479   40.5403    7.2563 N.ar    1  UNL1       -0.2527
     24 N           8.2440   40.7332    7.1039 N.ar    1  UNL1       -0.1649
     25 C          17.7847   41.9921    8.0091 C.3     1  UNL1        0.0985
     26 C          18.0067   43.4752    8.2655 C.3     1  UNL1        0.0219
     27 C          17.3912   44.3067    7.1569 C.3     1  UNL1        0.0018
     28 C          17.7340   43.6930    5.8164 C.3     1  UNL1        0.0001
@<TRIPOS>BOND
     1    18    14    1
     2    18    19   ar
     3    14    16   am
     4     2     3   ar
     5     4     5   ar
     6     6     7   ar
     7     6    11    1
     8     8     9   ar
     9    10     1   ar
    10    10     5   ar
    11    11    13   am
    12    25    13    1
    13    25    26    1
    14    26    27    1
    15    27    28    1
    16    20    23   ar
    17    21    23    1
    18    22    20    1
    19    16     1    1
    20    13     4    1
    21    23    24   ar
    22    18    24   ar
    23    14    15    2
    24     1     2   ar
    25     3     4   ar
    26     5     6   ar
    27     7     8   ar
    28     9    10   ar
    29    11    12    2
    30    19    20   ar
    31    16    17    1
@<TRIPOS>MOLECULE
MolPort-009-692-496 9122126 CSSS03437099267 MCULE-7553924893 PubChem-16952521 ZINC000009122126 ZOJMCCVGMPCENN-UHFFFAOYSA-N
 28 31 0 0 0
SMALL
GASTEIGER

@<TRIPOS>ATOM
      1 C           8.7848   41.8047    9.5399 C.ar    1  UNL1        0.0506
      2 C           9.9358   41.2921    8.8853 C.ar    1  UNL1        0.0160
      3 C          10.0277   41.2477    7.4752 C.ar    1  UNL1        0.0162
      4 C           8.9433   41.7272    6.7405 C.ar    1  UNL1        0.0543
      5 C           7.8521   42.2423    7.3804 C.ar    1  UNL1        0.0193
      6 C           6.9455   42.7466    6.4948 C.ar    1  UNL1        0.0551
      7 C           5.7967   43.3974    6.9432 C.ar    1  UNL1        0.0046
      8 C           5.6124   43.5008    8.3419 C.ar    1  UNL1        0.0002
      9 C           6.5710   42.9756    9.2468 C.ar    1  UNL1        0.0013
     10 C           7.7220   42.3248    8.7572 C.ar    1  UNL1        0.0148
     11 C           7.5293   42.5160    5.1753 C.2     1  UNL1        0.2528
     12 O           7.0384   42.8790    4.0739 O.2     1  UNL1       -0.2696
     13 N           8.7924   41.8474    5.3230 N.am    1  UNL1       -0.2552
     14 C           9.8102   41.3310   11.8210 C.2     1  UNL1        0.2690
     15 O          10.9451   41.0511   11.3483 O.2     1  UNL1       -0.2681
     16 N           8.7759   41.8425   10.9728 N.am    1  UNL1       -0.2791
     17 H           7.9951   42.2537   11.4093 H       1  UNL1        0.1552
     18 C           9.5603   41.1802   13.2584 C.ar    1  UNL1        0.1554
     19 C          10.3173   40.4042   14.1286 C.ar    1  UNL1        0.0398
     20 C           9.6758   40.5989   15.3370 C.ar    1  UNL1        0.0577
     21 C           7.7055   41.8729   16.2011 C.3     1  UNL1        0.1533
     22 C          10.0822   39.9849   16.6325 C.3     1  UNL1        0.0518
     23 N           8.6284   41.4250   15.1718 N.ar    1  UNL1       -0.2527
     24 N           8.5459   41.7879   13.9061 N.ar    1  UNL1       -0.1649
     25 C           9.8454   41.7461    4.3203 C.3     1  UNL1        0.0985
     26 C          10.5646   40.4095    4.4251 C.3     1  UNL1        0.0219
     27 C          10.3281   39.5771    3.1800 C.3     1  UNL1        0.0018
     28 C           9.1160   38.6943    3.3861 C.3     1  UNL1        0.0001
@<TRIPOS>BOND
     1    18    14    1
     2    18    19   ar
     3    14    16   am
     4     2     3   ar
     5     4     5   ar
     6     6     7   ar
     7     6    11    1
     8     8     9   ar
     9    10     1   ar
    10    10     5   ar
    11    11    13   am
    12    25    13    1
    13    25    26    1
    14    26    27    1
    15    27    28    1
    16    20    23   ar
    17    21    23    1
    18    22    20    1
    19    16     1    1
    20    13     4    1
    21    23    24   ar
    22    18    24   ar
    23    14    15    2
    24     1     2   ar
    25     3     4   ar
    26     5     6   ar
    27     7     8   ar
    28     9    10   ar
    29    11    12    2
    30    19    20   ar
    31    16    17    1
@<TRIPOS>MOLECULE
MolPort-009-692-496 9122126 CSSS03437099267 MCULE-7553924893 PubChem-16952521 ZINC000009122126 ZOJMCCVGMPCENN-UHFFFAOYSA-N
 28 31 0 0 0
SMALL
GASTEIGER

@<TRIPOS>ATOM
      1 C          10.9184   41.8341    8.0281 C.ar    1  UNL1        0.0506
      2 C           9.9990   42.3864    8.9586 C.ar    1  UNL1        0.0160
      3 C           8.6110   42.1331    8.8676 C.ar    1  UNL1        0.0162
      4 C           8.1689   41.3168    7.8265 C.ar    1  UNL1        0.0543
      5 C           9.0649   40.7696    6.9528 C.ar    1  UNL1        0.0193
      6 C           8.4527   39.9280    6.0712 C.ar    1  UNL1        0.0551
      7 C           9.1990   39.1980    5.1467 C.ar    1  UNL1        0.0046
      8 C          10.6023   39.3756    5.1589 C.ar    1  UNL1        0.0002
      9 C          11.2206   40.2509    6.0890 C.ar    1  UNL1        0.0013
     10 C          10.4342   40.9722    7.0107 C.ar    1  UNL1        0.0148
     11 C           7.0365   39.9612    6.4296 C.2     1  UNL1        0.2528
     12 O           6.1207   39.2815    5.8956 O.2     1  UNL1       -0.2696
     13 N           6.8451   40.8607    7.5334 N.am    1  UNL1       -0.2552
     14 C          13.1550   42.7566    7.2367 C.2     1  UNL1        0.2690
     15 O          12.6516   43.3753    6.2602 O.2     1  UNL1       -0.2681
     16 N          12.3136   42.1136    8.2010 N.am    1  UNL1       -0.2791
     17 H          12.7272   41.8414    9.0519 H       1  UNL1        0.1552
     18 C          14.6104   42.7361    7.4166 C.ar    1  UNL1        0.1554
     19 C          15.5058   43.6193    6.8243 C.ar    1  UNL1        0.0398
     20 C          16.7236   43.1767    7.3049 C.ar    1  UNL1        0.0577
     21 C          17.5717   41.3698    8.8107 C.3     1  UNL1        0.1533
     22 C          18.0457   43.7810    6.9775 C.3     1  UNL1        0.0518
     23 N          16.5399   42.1179    8.1124 N.ar    1  UNL1       -0.2527
     24 N          15.2531   41.8377    8.1897 N.ar    1  UNL1       -0.1649
     25 C           5.6843   40.9240    8.4126 C.3     1  UNL1        0.0985
     26 C           5.5694   42.2970    9.0579 C.3     1  UNL1        0.0219
     27 C           4.1395   42.7976    8.9969 C.3     1  UNL1        0.0018
     28 C           3.2105   41.7398    9.5529 C.3     1  UNL1        0.0001
@<TRIPOS>BOND
     1    18    14    1
     2    18    19   ar
     3    14    16   am
     4     2     3   ar
     5     4     5   ar
     6     6     7   ar
     7     6    11    1
     8     8     9   ar
     9    10     1   ar
    10    10     5   ar
    11    11    13   am
    12    25    13    1
    13    25    26    1
    14    26    27    1
    15    27    28    1
    16    20    23   ar
    17    21    23    1
    18    22    20    1
    19    16     1    1
    20    13     4    1
    21    23    24   ar
    22    18    24   ar
    23    14    15    2
    24     1     2   ar
    25     3     4   ar
    26     5     6   ar
    27     7     8   ar
    28     9    10   ar
    29    11    12    2
    30    19    20   ar
    31    16    17    1
@<TRIPOS>MOLECULE
MolPort-009-692-496 9122126 CSSS03437099267 MCULE-7553924893 PubChem-16952521 ZINC000009122126 ZOJMCCVGMPCENN-UHFFFAOYSA-N
 28 31 0 0 0
SMALL
GASTEIGER

@<TRIPOS>ATOM
      1 C          11.0053   41.1859    9.1404 C.ar    1  UNL1        0.0506
      2 C          11.0644   40.3368   10.2769 C.ar    1  UNL1        0.0160
      3 C          12.2848   39.7785   10.7217 C.ar    1  UNL1        0.0162
      4 C          13.4391   40.0905   10.0033 C.ar    1  UNL1        0.0543
      5 C          13.3746   40.9294    8.9274 C.ar    1  UNL1        0.0193
      6 C          14.6144   41.1884    8.4209 C.ar    1  UNL1        0.0551
      7 C          14.7815   42.0912    7.3714 C.ar    1  UNL1        0.0046
      8 C          13.6191   42.7112    6.8561 C.ar    1  UNL1        0.0002
      9 C          12.3390   42.4333    7.4016 C.ar    1  UNL1        0.0013
     10 C          12.2080   41.5155    8.4640 C.ar    1  UNL1        0.0148
     11 C          15.5382   40.4306    9.2620 C.2     1  UNL1        0.2528
     12 O          16.7941   40.4310    9.1705 O.2     1  UNL1       -0.2696
     13 N          14.7946   39.7114   10.2590 N.am    1  UNL1       -0.2552
     14 C           9.1185   42.8791    9.3691 C.2     1  UNL1        0.2690
     15 O           9.7886   43.6555   10.1026 O.2     1  UNL1       -0.2681
     16 N           9.7358   41.7362    8.7661 N.am    1  UNL1       -0.2791
     17 H           9.2485   41.2922    8.0349 H       1  UNL1        0.1552
     18 C           7.7093   43.1739    9.0890 C.ar    1  UNL1        0.1554
     19 C           7.2501   44.2009    8.2724 C.ar    1  UNL1        0.0398
     20 C           5.8783   44.0494    8.3452 C.ar    1  UNL1        0.0577
     21 C           4.2423   42.5336    9.4754 C.3     1  UNL1        0.1533
     22 C           4.8823   44.9070    7.6433 C.3     1  UNL1        0.0518
     23 N           5.5738   43.0126    9.1447 N.ar    1  UNL1       -0.2527
     24 N           6.6834   42.4684    9.6064 N.ar    1  UNL1       -0.1649
     25 C          15.3227   39.1300   11.4868 C.3     1  UNL1        0.0985
     26 C          15.4682   37.6216   11.3513 C.3     1  UNL1        0.0219
     27 C          14.1605   36.9275   11.6788 C.3     1  UNL1        0.0018
     28 C          13.6421   36.2201   10.4451 C.3     1  UNL1        0.0001
@<TRIPOS>BOND
     1    18    14    1
     2    18    19   ar
     3    14    16   am
     4     2     3   ar
     5     4     5   ar
     6     6     7   ar
     7     6    11    1
     8     8     9   ar
     9    10     1   ar
    10    10     5   ar
    11    11    13   am
    12    25    13    1
    13    25    26    1
    14    26    27    1
    15    27    28    1
    16    20    23   ar
    17    21    23    1
    18    22    20    1
    19    16     1    1
    20    13     4    1
    21    23    24   ar
    22    18    24   ar
    23    14    15    2
    24     1     2   ar
    25     3     4   ar
    26     5     6   ar
    27     7     8   ar
    28     9    10   ar
    29    11    12    2
    30    19    20   ar
    31    16    17    1
@<TRIPOS>MOLECULE
MolPort-009-692-496 9122126 CSSS03437099267 MCULE-7553924893 PubChem-16952521 ZINC000009122126 ZOJMCCVGMPCENN-UHFFFAOYSA-N
 28 31 0 0 0
SMALL
GASTEIGER

@<TRIPOS>ATOM
      1 C          11.2619   41.1205    9.1830 C.ar    1  UNL1        0.0506
      2 C          11.3455   40.2578   10.3076 C.ar    1  UNL1        0.0160
      3 C          12.5810   39.7250   10.7421 C.ar    1  UNL1        0.0162
      4 C          13.7250   40.0763   10.0256 C.ar    1  UNL1        0.0543
      5 C          13.6364   40.9278    8.9614 C.ar    1  UNL1        0.0193
      6 C          14.8678   41.2255    8.4559 C.ar    1  UNL1        0.0551
      7 C          15.0091   42.1465    7.4185 C.ar    1  UNL1        0.0046
      8 C          13.8299   42.7434    6.9142 C.ar    1  UNL1        0.0002
      9 C          12.5587   42.4253    7.4586 C.ar    1  UNL1        0.0013
     10 C          12.4540   41.4901    8.5086 C.ar    1  UNL1        0.0148
     11 C          15.8129   40.4803    9.2845 C.2     1  UNL1        0.2528
     12 O          17.0682   40.5142    9.1903 O.2     1  UNL1       -0.2696
     13 N          15.0905   39.7287   10.2732 N.am    1  UNL1       -0.2552
     14 C           9.3719   42.8145    9.3771 C.2     1  UNL1        0.2690
     15 O          10.0594   43.6335   10.0453 O.2     1  UNL1       -0.2681
     16 N           9.9777   41.6430    8.8190 N.am    1  UNL1       -0.2791
     17 H           9.4708   41.1568    8.1291 H       1  UNL1        0.1552
     18 C           7.9527   43.0865    9.1257 C.ar    1  UNL1        0.1554
     19 C           7.4607   44.1030    8.3150 C.ar    1  UNL1        0.0398
     20 C           6.0933   43.9306    8.4172 C.ar    1  UNL1        0.0577
     21 C           4.5049   42.3946    9.5873 C.3     1  UNL1        0.1533
     22 C           5.0697   44.7700    7.7331 C.3     1  UNL1        0.0518
     23 N           5.8217   42.8927    9.2269 N.ar    1  UNL1       -0.2527
     24 N           6.9489   42.3675    9.6671 N.ar    1  UNL1       -0.1649
     25 C          15.6364   39.1444   11.4918 C.3     1  UNL1        0.0985
     26 C          15.6699   37.6264   11.3952 C.3     1  UNL1        0.0219
     27 C          16.6655   37.1803   10.3422 C.3     1  UNL1        0.0018
     28 C          18.0688   37.5137   10.8014 C.3     1  UNL1        0.0001
@<TRIPOS>BOND
     1    18    14    1
     2    18    19   ar
     3    14    16   am
     4     2     3   ar
     5     4     5   ar
     6     6     7   ar
     7     6    11    1
     8     8     9   ar
     9    10     1   ar
    10    10     5   ar
    11    11    13   am
    12    25    13    1
    13    25    26    1
    14    26    27    1
    15    27    28    1
    16    20    23   ar
    17    21    23    1
    18    22    20    1
    19    16     1    1
    20    13     4    1
    21    23    24   ar
    22    18    24   ar
    23    14    15    2
    24     1     2   ar
    25     3     4   ar
    26     5     6   ar
    27     7     8   ar
    28     9    10   ar
    29    11    12    2
    30    19    20   ar
    31    16    17    1
@<TRIPOS>MOLECULE
MolPort-009-692-496 9122126 CSSS03437099267 MCULE-7553924893 PubChem-16952521 ZINC000009122126 ZOJMCCVGMPCENN-UHFFFAOYSA-N
 28 31 0 0 0
SMALL
GASTEIGER

@<TRIPOS>ATOM
      1 C          10.3366   40.7098    9.1861 C.ar    1  UNL1        0.0506
      2 C          10.9163   41.9226    8.7291 C.ar    1  UNL1        0.0160
      3 C          12.3163   42.0714    8.5990 C.ar    1  UNL1        0.0162
      4 C          13.1172   40.9804    8.9365 C.ar    1  UNL1        0.0543
      5 C          12.5475   39.8099    9.3499 C.ar    1  UNL1        0.0193
      6 C          13.4848   38.8369    9.5375 C.ar    1  UNL1        0.0551
      7 C          13.1067   37.5386    9.8777 C.ar    1  UNL1        0.0046
      8 C          11.7235   37.2826   10.0270 C.ar    1  UNL1        0.0002
      9 C          10.7636   38.3070    9.8206 C.ar    1  UNL1        0.0013
     10 C          11.1826   39.6085    9.4759 C.ar    1  UNL1        0.0148
     11 C          14.7625   39.4680    9.2144 C.2     1  UNL1        0.2528
     12 O          15.8876   38.9023    9.2064 O.2     1  UNL1       -0.2696
     13 N          14.5383   40.8400    8.8514 N.am    1  UNL1       -0.2552
     14 C           8.0113   41.7418    9.2736 C.2     1  UNL1        0.2690
     15 O           8.4129   42.8867    8.9305 O.2     1  UNL1       -0.2681
     16 N           8.9079   40.6251    9.2660 N.am    1  UNL1       -0.2791
     17 H           8.5106   39.7259    9.3202 H       1  UNL1        0.1552
     18 C           6.6044   41.5393    9.6351 C.ar    1  UNL1        0.1554
     19 C           5.5155   41.8348    8.8230 C.ar    1  UNL1        0.0398
     20 C           4.4441   41.4695    9.6159 C.ar    1  UNL1        0.0577
     21 C           4.0713   40.5169   11.8974 C.3     1  UNL1        0.1533
     22 C           3.0106   41.5795    9.2244 C.3     1  UNL1        0.0518
     23 N           4.8861   40.9998   10.7952 N.ar    1  UNL1       -0.2527
     24 N           6.2046   41.0369   10.8207 N.ar    1  UNL1       -0.1649
     25 C          15.4615   41.7126    8.1368 C.3     1  UNL1        0.0985
     26 C          16.8113   41.7604    8.8371 C.3     1  UNL1        0.0219
     27 C          17.7937   42.6018    8.0458 C.3     1  UNL1        0.0018
     28 C          17.1925   43.9659    7.7833 C.3     1  UNL1        0.0001
@<TRIPOS>BOND
     1    18    14    1
     2    18    19   ar
     3    14    16   am
     4     2     3   ar
     5     4     5   ar
     6     6     7   ar
     7     6    11    1
     8     8     9   ar
     9    10     1   ar
    10    10     5   ar
    11    11    13   am
    12    25    13    1
    13    25    26    1
    14    26    27    1
    15    27    28    1
    16    20    23   ar
    17    21    23    1
    18    22    20    1
    19    16     1    1
    20    13     4    1
    21    23    24   ar
    22    18    24   ar
    23    14    15    2
    24     1     2   ar
    25     3     4   ar
    26     5     6   ar
    27     7     8   ar
    28     9    10   ar
    29    11    12    2
    30    19    20   ar
    31    16    17    1
@<TRIPOS>MOLECULE
MolPort-009-692-496 9122126 CSSS03437099267 MCULE-7553924893 PubChem-16952521 ZINC000009122126 ZOJMCCVGMPCENN-UHFFFAOYSA-N
 28 31 0 0 0
SMALL
GASTEIGER

@<TRIPOS>ATOM
      1 C          10.6243   41.8147    9.4960 C.ar    1  UNL1        0.0506
      2 C          11.0390   42.7257    8.4890 C.ar    1  UNL1        0.0160
      3 C          12.3775   42.7697    8.0358 C.ar    1  UNL1        0.0162
      4 C          13.2859   41.8828    8.6136 C.ar    1  UNL1        0.0543
      5 C          12.8703   40.9929    9.5627 C.ar    1  UNL1        0.0193
      6 C          13.8772   40.1502    9.9322 C.ar    1  UNL1        0.0551
      7 C          13.6421   39.1083   10.8287 C.ar    1  UNL1        0.0046
      8 C          12.3295   38.9732   11.3385 C.ar    1  UNL1        0.0002
      9 C          11.2942   39.8562   10.9360 C.ar    1  UNL1        0.0013
     10 C          11.5683   40.8980   10.0262 C.ar    1  UNL1        0.0148
     11 C          15.0328   40.5621    9.1385 C.2     1  UNL1        0.2528
     12 O          16.1639   40.0086    9.1335 O.2     1  UNL1       -0.2696
     13 N          14.6694   41.6795    8.3117 N.am    1  UNL1       -0.2552
     14 C           8.1457   41.4657    9.0329 C.2     1  UNL1        0.2690
     15 O           8.3459   40.8703    7.9397 O.2     1  UNL1       -0.2681
     16 N           9.2445   41.8101    9.8844 N.am    1  UNL1       -0.2791
     17 H           9.0351   42.0643   10.8122 H       1  UNL1        0.1552
     18 C           6.7752   41.7643    9.4617 C.ar    1  UNL1        0.1554
     19 C           6.1863   41.3179   10.6392 C.ar    1  UNL1        0.0398
     20 C           4.9187   41.8633   10.5642 C.ar    1  UNL1        0.0577
     21 C           3.6104   43.2924    8.9839 C.3     1  UNL1        0.1533
     22 C           3.8505   41.6944   11.5893 C.3     1  UNL1        0.0518
     23 N           4.7903   42.5696    9.4278 N.ar    1  UNL1       -0.2527
     24 N           5.9174   42.5175    8.7442 N.ar    1  UNL1       -0.1649
     25 C          15.3891   42.1659    7.1413 C.3     1  UNL1        0.0985
     26 C          16.8088   42.5703    7.5096 C.3     1  UNL1        0.0219
     27 C          17.0470   44.0333    7.1904 C.3     1  UNL1        0.0018
     28 C          18.4629   44.4088    7.5717 C.3     1  UNL1        0.0001
@<TRIPOS>BOND
     1    18    14    1
     2    18    19   ar
     3    14    16   am
     4     2     3   ar
     5     4     5   ar
     6     6     7   ar
     7     6    11    1
     8     8     9   ar
     9    10     1   ar
    10    10     5   ar
    11    11    13   am
    12    25    13    1
    13    25    26    1
    14    26    27    1
    15    27    28    1
    16    20    23   ar
    17    21    23    1
    18    22    20    1
    19    16     1    1
    20    13     4    1
    21    23    24   ar
    22    18    24   ar
    23    14    15    2
    24     1     2   ar
    25     3     4   ar
    26     5     6   ar
    27     7     8   ar
    28     9    10   ar
    29    11    12    2
    30    19    20   ar
    31    16    17    1
