@<TRIPOS>MOLECULE
MolPort-004-997-950 CSSS00159751999 MCULE-3010046500 PubChem-45168360
 32 35 0 0 0
SMALL
GASTEIGER

@<TRIPOS>ATOM
      1 O           9.5971   40.7026   11.6893 O.2     1  UNL1       -0.2668
      2 C          10.1474   41.3107   10.7312 C.2     1  UNL1        0.2839
      3 C          12.3646   40.2860   11.2568 C.3     1  UNL1        0.0958
      4 C          13.1069   39.1203   10.6117 C.3     1  UNL1        0.0460
      5 C          13.8561   39.5413    9.3376 C.3     1  UNL1        0.1099
      6 C          13.3360   40.8362    8.6992 C.3     1  UNL1        0.0460
      7 C          11.8281   40.9952    8.8764 C.3     1  UNL1        0.0958
      8 N          11.4497   40.8944   10.2899 N.am    1  UNL1       -0.2736
      9 C          17.2668   39.2222   10.3421 C.ar    1  UNL1        0.1230
     10 C          17.3738   40.4267    9.6544 C.ar    1  UNL1        0.0565
     11 C          16.0854   40.6561    9.2089 C.ar    1  UNL1        0.1325
     12 N          15.2838   39.6589    9.6063 N.ar    1  UNL1       -0.2394
     13 N          15.9913   38.7824   10.2961 N.ar    1  UNL1       -0.1666
     14 O          17.7133   42.8135    8.1220 O.2     1  UNL1       -0.2747
     15 C          16.4690   42.8148    7.9120 C.2     1  UNL1        0.2292
     16 N          15.6346   41.7761    8.4358 N.am    1  UNL1       -0.2695
     17 H          14.6698   41.8361    8.2494 H       1  UNL1        0.1562
     18 O          14.1672   43.2430    5.5689 O.3     1  UNL1       -0.3533
     19 C          15.8401   43.9114    7.1134 C.3     1  UNL1        0.1088
     20 C          16.4132   43.9500    5.7274 C.3     1  UNL1        0.0437
     21 C          15.1971   43.8536    4.8389 C.3     1  UNL1        0.1428
     22 C          14.3640   43.6477    6.8987 C.3     1  UNL1        0.1512
     23 O           9.8446   43.6229   10.3236 O.2     1  UNL1       -0.2865
     24 C           9.4368   42.4498   10.1131 C.2     1  UNL1        0.2264
     25 C           8.2935   42.2472    9.1703 C.3     1  UNL1        0.0787
     26 C           7.8591   43.5729    8.5565 C.3     1  UNL1        0.0346
     27 C           6.3725   43.7139    8.5666 C.ar    1  UNL1       -0.0217
     28 C           5.7461   44.6755    7.7635 C.ar    1  UNL1       -0.0043
     29 C           4.3541   44.8043    7.7813 C.ar    1  UNL1       -0.0003
     30 C           3.5854   43.9700    8.5985 C.ar    1  UNL1       -0.0000
     31 C           4.2084   43.0040    9.3948 C.ar    1  UNL1       -0.0003
     32 C           5.6006   42.8742    9.3767 C.ar    1  UNL1       -0.0043
@<TRIPOS>BOND
     1    24     2    1
     2    25    24    1
     3    25    26    1
     4    26    27    1
     5    28    29   ar
     6    30    31   ar
     7    32    27   ar
     8     2     8   am
     9     3     8    1
    10     3     4    1
    11     4     5    1
    12     5     6    1
    13     5    12    1
    14     6     7    1
    15     7     8    1
    16     9    10   ar
    17    11    16    1
    18    11    12   ar
    19    19    15    1
    20    19    20    1
    21    20    21    1
    22    21    18    1
    23    22    18    1
    24    22    19    1
    25    12    13   ar
    26    16    15   am
    27    24    23    2
    28    27    28   ar
    29    29    30   ar
    30    31    32   ar
    31     2     1    2
    32     9    13   ar
    33    10    11   ar
    34    15    14    2
    35    16    17    1
@<TRIPOS>MOLECULE
MolPort-004-997-950 CSSS00159751999 MCULE-3010046500 PubChem-45168360
 32 35 0 0 0
SMALL
GASTEIGER

@<TRIPOS>ATOM
      1 O          11.1738   39.8693   10.5467 O.2     1  UNL1       -0.2668
      2 C          11.0626   41.0360   10.0807 C.2     1  UNL1        0.2839
      3 C          13.4591   41.0623    9.3746 C.3     1  UNL1        0.0958
      4 C          14.1024   40.8501    8.0082 C.3     1  UNL1        0.0460
      5 C          14.0680   42.1213    7.1452 C.3     1  UNL1        0.1099
      6 C          13.0078   43.1451    7.5729 C.3     1  UNL1        0.0460
      7 C          11.7537   42.4724    8.1252 C.3     1  UNL1        0.0958
      8 N          12.0874   41.5468    9.2130 N.am    1  UNL1       -0.2736
      9 C          17.0307   44.0143    6.5272 C.ar    1  UNL1        0.1230
     10 C          17.4884   43.2780    7.6151 C.ar    1  UNL1        0.0565
     11 C          16.4014   42.4919    7.9493 C.ar    1  UNL1        0.1325
     12 N          15.3827   42.7498    7.1183 N.ar    1  UNL1       -0.2394
     13 N          15.7544   43.6730    6.2499 N.ar    1  UNL1       -0.1666
     14 O          18.4633   40.5952    8.7475 O.2     1  UNL1       -0.2747
     15 C          17.3731   40.6235    9.3824 C.2     1  UNL1        0.2292
     16 N          16.3329   41.5361    9.0156 N.am    1  UNL1       -0.2695
     17 H          15.5001   41.5046    9.5398 H       1  UNL1        0.1562
     18 O          18.2249   37.5856   10.3911 O.3     1  UNL1       -0.3533
     19 C          17.1451   39.6939   10.5313 C.3     1  UNL1        0.1088
     20 C          16.1298   38.6496   10.1713 C.3     1  UNL1        0.0437
     21 C          16.8439   37.3502   10.4530 C.3     1  UNL1        0.1428
     22 C          18.3980   38.9027   10.8453 C.3     1  UNL1        0.1512
     23 O           9.6828   42.0977   11.6848 O.2     1  UNL1       -0.2865
     24 C           9.8878   41.8450   10.4679 C.2     1  UNL1        0.2264
     25 C           8.9762   42.4490    9.4474 C.3     1  UNL1        0.0787
     26 C           7.6908   41.6394    9.3257 C.3     1  UNL1        0.0346
     27 C           7.6132   40.9395    8.0090 C.ar    1  UNL1       -0.0217
     28 C           6.3841   40.4730    7.5253 C.ar    1  UNL1       -0.0043
     29 C           6.3200   39.8151    6.2934 C.ar    1  UNL1       -0.0003
     30 C           7.4830   39.6256    5.5409 C.ar    1  UNL1       -0.0000
     31 C           8.7096   40.0979    6.0183 C.ar    1  UNL1       -0.0003
     32 C           8.7741   40.7568    7.2499 C.ar    1  UNL1       -0.0043
@<TRIPOS>BOND
     1    24     2    1
     2    25    24    1
     3    25    26    1
     4    26    27    1
     5    28    29   ar
     6    30    31   ar
     7    32    27   ar
     8     2     8   am
     9     3     8    1
    10     3     4    1
    11     4     5    1
    12     5     6    1
    13     5    12    1
    14     6     7    1
    15     7     8    1
    16     9    10   ar
    17    11    16    1
    18    11    12   ar
    19    19    15    1
    20    19    20    1
    21    20    21    1
    22    21    18    1
    23    22    18    1
    24    22    19    1
    25    12    13   ar
    26    16    15   am
    27    24    23    2
    28    27    28   ar
    29    29    30   ar
    30    31    32   ar
    31     2     1    2
    32     9    13   ar
    33    10    11   ar
    34    15    14    2
    35    16    17    1
@<TRIPOS>MOLECULE
MolPort-004-997-950 CSSS00159751999 MCULE-3010046500 PubChem-45168360
 32 35 0 0 0
SMALL
GASTEIGER

@<TRIPOS>ATOM
      1 O           8.9852   41.5506    9.8760 O.2     1  UNL1       -0.2668
      2 C           9.3196   42.0100    8.7501 C.2     1  UNL1        0.2839
      3 C          11.7427   41.9281    9.3532 C.3     1  UNL1        0.0958
      4 C          12.8324   40.9263    8.9859 C.3     1  UNL1        0.0460
      5 C          13.4199   41.1911    7.5906 C.3     1  UNL1        0.1099
      6 C          12.5144   42.0237    6.6731 C.3     1  UNL1        0.0460
      7 C          11.0348   41.7401    6.9199 C.3     1  UNL1        0.0958
      8 N          10.6919   41.9218    8.3344 N.am    1  UNL1       -0.2736
      9 C          16.3720   43.1877    7.3862 C.ar    1  UNL1        0.1230
     10 C          16.8181   42.2692    8.3310 C.ar    1  UNL1        0.0565
     11 C          15.7340   41.4271    8.4950 C.ar    1  UNL1        0.1325
     12 N          14.7278   41.8241    7.7046 N.ar    1  UNL1       -0.2394
     13 N          15.1049   42.8928    7.0261 N.ar    1  UNL1       -0.1666
     14 O          17.9566   39.9722    9.6905 O.2     1  UNL1       -0.2747
     15 C          16.7750   39.6078    9.9425 C.2     1  UNL1        0.2292
     16 N          15.6568   40.2927    9.3681 N.am    1  UNL1       -0.2695
     17 H          14.7590   39.9562    9.5916 H       1  UNL1        0.1562
     18 O          14.7296   37.0176   10.2226 O.3     1  UNL1       -0.3533
     19 C          16.5213   38.4431   10.8454 C.3     1  UNL1        0.1088
     20 C          15.3485   38.7153   11.7405 C.3     1  UNL1        0.0437
     21 C          14.4311   37.5439   11.4876 C.3     1  UNL1        0.1428
     22 C          16.1079   37.2214   10.0511 C.3     1  UNL1        0.1512
     23 O           8.2225   42.3645    6.6825 O.2     1  UNL1       -0.2865
     24 C           8.2846   42.6467    7.9086 C.2     1  UNL1        0.2264
     25 C           7.2477   43.5558    8.4879 C.3     1  UNL1        0.0787
     26 C           5.8486   43.1014    8.0896 C.3     1  UNL1        0.0346
     27 C           5.1135   42.5247    9.2545 C.ar    1  UNL1       -0.0217
     28 C           5.7805   41.7166   10.1842 C.ar    1  UNL1       -0.0043
     29 C           5.0846   41.1769   11.2700 C.ar    1  UNL1       -0.0003
     30 C           3.7223   41.4468   11.4310 C.ar    1  UNL1       -0.0000
     31 C           3.0567   42.2600   10.5085 C.ar    1  UNL1       -0.0003
     32 C           3.7524   42.8008    9.4228 C.ar    1  UNL1       -0.0043
@<TRIPOS>BOND
     1    24     2    1
     2    25    24    1
     3    25    26    1
     4    26    27    1
     5    28    29   ar
     6    30    31   ar
     7    32    27   ar
     8     2     8   am
     9     3     8    1
    10     3     4    1
    11     4     5    1
    12     5     6    1
    13     5    12    1
    14     6     7    1
    15     7     8    1
    16     9    10   ar
    17    11    16    1
    18    11    12   ar
    19    19    15    1
    20    19    20    1
    21    20    21    1
    22    21    18    1
    23    22    18    1
    24    22    19    1
    25    12    13   ar
    26    16    15   am
    27    24    23    2
    28    27    28   ar
    29    29    30   ar
    30    31    32   ar
    31     2     1    2
    32     9    13   ar
    33    10    11   ar
    34    15    14    2
    35    16    17    1
@<TRIPOS>MOLECULE
MolPort-004-997-950 CSSS00159751999 MCULE-3010046500 PubChem-45168360
 32 35 0 0 0
SMALL
GASTEIGER

@<TRIPOS>ATOM
      1 O          10.2859   40.4973   11.4149 O.2     1  UNL1       -0.2668
      2 C           9.6801   41.1683   10.5354 C.2     1  UNL1        0.2839
      3 C          10.5451   39.6970    8.7108 C.3     1  UNL1        0.0958
      4 C           9.8801   38.5608    7.9409 C.3     1  UNL1        0.0460
      5 C           8.9909   39.0749    6.7977 C.3     1  UNL1        0.1099
      6 C           8.5470   40.5357    6.9526 C.3     1  UNL1        0.0460
      7 C           8.3356   40.9169    8.4156 C.3     1  UNL1        0.0958
      8 N           9.5296   40.6227    9.2150 N.am    1  UNL1       -0.2736
      9 C          10.0659   38.2371    3.4984 C.ar    1  UNL1        0.1230
     10 C          11.1597   39.0103    3.8737 C.ar    1  UNL1        0.0565
     11 C          10.8485   39.4001    5.1631 C.ar    1  UNL1        0.1325
     12 N           9.6599   38.8926    5.5158 N.ar    1  UNL1       -0.2394
     13 N           9.1757   38.1838    4.5119 N.ar    1  UNL1       -0.1666
     14 O          10.8299   42.3081    5.3330 O.2     1  UNL1       -0.2747
     15 C          11.6037   41.6520    6.0835 C.2     1  UNL1        0.2292
     16 N          11.6471   40.2224    6.0241 N.am    1  UNL1       -0.2695
     17 H          12.2786   39.7653    6.6253 H       1  UNL1        0.1562
     18 O          14.7395   42.6880    6.3390 O.3     1  UNL1       -0.3533
     19 C          12.4989   42.3614    7.0486 C.3     1  UNL1        0.1088
     20 C          13.3838   41.3834    7.7637 C.3     1  UNL1        0.0437
     21 C          14.7743   41.9100    7.5051 C.3     1  UNL1        0.1428
     22 C          13.4642   43.2748    6.3218 C.3     1  UNL1        0.1512
     23 O           9.7848   43.5330   10.5014 O.2     1  UNL1       -0.2865
     24 C           9.1675   42.5074   10.8938 C.2     1  UNL1        0.2264
     25 C           7.8834   42.6858   11.6398 C.3     1  UNL1        0.0787
     26 C           7.0783   41.3918   11.6449 C.3     1  UNL1        0.0346
     27 C           5.7687   41.5651   10.9486 C.ar    1  UNL1       -0.0217
     28 C           5.6091   42.5603    9.9758 C.ar    1  UNL1       -0.0043
     29 C           4.3788   42.7191    9.3311 C.ar    1  UNL1       -0.0003
     30 C           3.3071   41.8815    9.6544 C.ar    1  UNL1       -0.0000
     31 C           3.4668   40.8821   10.6193 C.ar    1  UNL1       -0.0003
     32 C           4.6975   40.7222   11.2638 C.ar    1  UNL1       -0.0043
@<TRIPOS>BOND
     1    24     2    1
     2    25    24    1
     3    25    26    1
     4    26    27    1
     5    28    29   ar
     6    30    31   ar
     7    32    27   ar
     8     2     8   am
     9     3     8    1
    10     3     4    1
    11     4     5    1
    12     5     6    1
    13     5    12    1
    14     6     7    1
    15     7     8    1
    16     9    10   ar
    17    11    16    1
    18    11    12   ar
    19    19    15    1
    20    19    20    1
    21    20    21    1
    22    21    18    1
    23    22    18    1
    24    22    19    1
    25    12    13   ar
    26    16    15   am
    27    24    23    2
    28    27    28   ar
    29    29    30   ar
    30    31    32   ar
    31     2     1    2
    32     9    13   ar
    33    10    11   ar
    34    15    14    2
    35    16    17    1
@<TRIPOS>MOLECULE
MolPort-004-997-950 CSSS00159751999 MCULE-3010046500 PubChem-45168360
 32 35 0 0 0
SMALL
GASTEIGER

@<TRIPOS>ATOM
      1 O           9.2533   41.9020    5.4008 O.2     1  UNL1       -0.2668
      2 C           9.1351   40.9608    6.2320 C.2     1  UNL1        0.2839
      3 C          11.4957   41.2435    7.0001 C.3     1  UNL1        0.0958
      4 C          12.0711   41.9258    8.2367 C.3     1  UNL1        0.0460
      5 C          12.0121   41.0237    9.4795 C.3     1  UNL1        0.1099
      6 C          10.9864   39.8862    9.3846 C.3     1  UNL1        0.0460
      7 C           9.7513   40.2954    8.5862 C.3     1  UNL1        0.0958
      8 N          10.1242   40.8047    7.2622 N.am    1  UNL1       -0.2736
      9 C          14.9299   39.4170   10.7635 C.ar    1  UNL1        0.1230
     10 C          15.5002   39.9901    9.6315 C.ar    1  UNL1        0.0565
     11 C          14.4406   40.6523    9.0399 C.ar    1  UNL1        0.1325
     12 N          13.3320   40.4789    9.7718 N.ar    1  UNL1       -0.2394
     13 N          13.6180   39.7303   10.8217 N.ar    1  UNL1       -0.1666
     14 O          16.4472   42.6154    8.2617 O.2     1  UNL1       -0.2747
     15 C          15.4893   42.3696    7.4779 C.2     1  UNL1        0.2292
     16 N          14.4795   41.4172    7.8280 N.am    1  UNL1       -0.2695
     17 H          13.7503   41.2754    7.1820 H       1  UNL1        0.1562
     18 O          16.2404   45.2923    6.1120 O.3     1  UNL1       -0.3533
     19 C          15.3881   43.0784    6.1650 C.3     1  UNL1        0.1088
     20 C          14.2391   44.0431    6.1736 C.3     1  UNL1        0.0437
     21 C          14.8769   45.3562    5.7909 C.3     1  UNL1        0.1428
     22 C          16.6038   43.9493    5.9241 C.3     1  UNL1        0.1512
     23 O           8.1355   38.9579    5.4617 O.2     1  UNL1       -0.2865
     24 C           7.9902   40.0358    6.0973 C.2     1  UNL1        0.2264
     25 C           6.6803   40.3005    6.7689 C.3     1  UNL1        0.0787
     26 C           6.7454   41.5812    7.5925 C.3     1  UNL1        0.0346
     27 C           6.0456   41.4202    8.9017 C.ar    1  UNL1       -0.0217
     28 C           4.6976   41.0416    8.9434 C.ar    1  UNL1       -0.0043
     29 C           4.0481   40.8969   10.1729 C.ar    1  UNL1       -0.0003
     30 C           4.7452   41.1263   11.3628 C.ar    1  UNL1       -0.0000
     31 C           6.0931   41.4964   11.3236 C.ar    1  UNL1       -0.0003
     32 C           6.7435   41.6404   10.0941 C.ar    1  UNL1       -0.0043
@<TRIPOS>BOND
     1    24     2    1
     2    25    24    1
     3    25    26    1
     4    26    27    1
     5    28    29   ar
     6    30    31   ar
     7    32    27   ar
     8     2     8   am
     9     3     8    1
    10     3     4    1
    11     4     5    1
    12     5     6    1
    13     5    12    1
    14     6     7    1
    15     7     8    1
    16     9    10   ar
    17    11    16    1
    18    11    12   ar
    19    19    15    1
    20    19    20    1
    21    20    21    1
    22    21    18    1
    23    22    18    1
    24    22    19    1
    25    12    13   ar
    26    16    15   am
    27    24    23    2
    28    27    28   ar
    29    29    30   ar
    30    31    32   ar
    31     2     1    2
    32     9    13   ar
    33    10    11   ar
    34    15    14    2
    35    16    17    1
@<TRIPOS>MOLECULE
MolPort-004-997-950 CSSS00159751999 MCULE-3010046500 PubChem-45168360
 32 35 0 0 0
SMALL
GASTEIGER

@<TRIPOS>ATOM
      1 O           8.0657   41.3222   10.5024 O.2     1  UNL1       -0.2668
      2 C           8.5855   42.0599    9.6213 C.2     1  UNL1        0.2839
      3 C           8.9050   40.1200    8.0796 C.3     1  UNL1        0.0958
      4 C           8.1035   39.6642    6.8647 C.3     1  UNL1        0.0460
      5 C           8.4765   40.4459    5.5951 C.3     1  UNL1        0.1099
      6 C           9.1543   41.7964    5.8626 C.3     1  UNL1        0.0460
      7 C           8.6244   42.4606    7.1308 C.3     1  UNL1        0.0958
      8 N           8.7325   41.5592    8.2828 N.am    1  UNL1       -0.2736
      9 C          10.0294   38.5522    2.9978 C.ar    1  UNL1        0.1230
     10 C          10.9974   38.3731    3.9806 C.ar    1  UNL1        0.0565
     11 C          10.4942   39.0789    5.0576 C.ar    1  UNL1        0.1325
     12 N           9.3185   39.6307    4.7287 N.ar    1  UNL1       -0.2394
     13 N           9.0263   39.3166    3.4795 N.ar    1  UNL1       -0.1666
     14 O          12.3008   41.1958    5.9184 O.2     1  UNL1       -0.2747
     15 C          11.9851   40.2858    6.7337 C.2     1  UNL1        0.2292
     16 N          11.1061   39.2245    6.3458 N.am    1  UNL1       -0.2695
     17 H          10.9049   38.5366    7.0207 H       1  UNL1        0.1562
     18 O          14.8980   40.3262    8.3101 O.3     1  UNL1       -0.3533
     19 C          12.5326   40.2967    8.1252 C.3     1  UNL1        0.1088
     20 C          13.0077   38.9283    8.5159 C.3     1  UNL1        0.0437
     21 C          14.4395   39.1572    8.9344 C.3     1  UNL1        0.1428
     22 C          13.7735   41.1609    8.2128 C.3     1  UNL1        0.1512
     23 O          10.2699   43.6014   10.2464 O.2     1  UNL1       -0.2865
     24 C           9.0478   43.4091   10.0091 C.2     1  UNL1        0.2264
     25 C           8.1181   44.5803   10.0455 C.3     1  UNL1        0.0787
     26 C           7.5144   44.8327    8.6691 C.3     1  UNL1        0.0346
     27 C           6.0647   44.4763    8.6391 C.ar    1  UNL1       -0.0217
     28 C           5.1874   45.1466    7.7769 C.ar    1  UNL1       -0.0043
     29 C           3.8306   44.8102    7.7573 C.ar    1  UNL1       -0.0003
     30 C           3.3487   43.8009    8.5962 C.ar    1  UNL1       -0.0000
     31 C           4.2243   43.1250    9.4518 C.ar    1  UNL1       -0.0003
     32 C           5.5817   43.4605    9.4710 C.ar    1  UNL1       -0.0043
@<TRIPOS>BOND
     1    24     2    1
     2    25    24    1
     3    25    26    1
     4    26    27    1
     5    28    29   ar
     6    30    31   ar
     7    32    27   ar
     8     2     8   am
     9     3     8    1
    10     3     4    1
    11     4     5    1
    12     5     6    1
    13     5    12    1
    14     6     7    1
    15     7     8    1
    16     9    10   ar
    17    11    16    1
    18    11    12   ar
    19    19    15    1
    20    19    20    1
    21    20    21    1
    22    21    18    1
    23    22    18    1
    24    22    19    1
    25    12    13   ar
    26    16    15   am
    27    24    23    2
    28    27    28   ar
    29    29    30   ar
    30    31    32   ar
    31     2     1    2
    32     9    13   ar
    33    10    11   ar
    34    15    14    2
    35    16    17    1
@<TRIPOS>MOLECULE
MolPort-004-997-950 CSSS00159751999 MCULE-3010046500 PubChem-45168360
 32 35 0 0 0
SMALL
GASTEIGER

@<TRIPOS>ATOM
      1 O          11.0312   38.6333    9.7174 O.2     1  UNL1       -0.2668
      2 C          11.3342   39.8498    9.8547 C.2     1  UNL1        0.2839
      3 C           9.1985   40.5795    8.7831 C.3     1  UNL1        0.0958
      4 C           7.8986   41.0958    9.3912 C.3     1  UNL1        0.0460
      5 C           7.9726   42.5909    9.7392 C.3     1  UNL1        0.1099
      6 C           9.4002   43.1331    9.8906 C.3     1  UNL1        0.0460
      7 C          10.3494   42.0888   10.4728 C.3     1  UNL1        0.0958
      8 N          10.3173   40.8507    9.6870 N.am    1  UNL1       -0.2736
      9 C           6.8243   44.7890    7.1715 C.ar    1  UNL1        0.1230
     10 C           5.6000   44.2217    7.5099 C.ar    1  UNL1        0.0565
     11 C           5.9269   43.3328    8.5170 C.ar    1  UNL1        0.1325
     12 N           7.2455   43.3766    8.7501 N.ar    1  UNL1       -0.2394
     13 N           7.8004   44.2586    7.9384 N.ar    1  UNL1       -0.1666
     14 O           3.0718   43.7391    8.9282 O.2     1  UNL1       -0.2747
     15 C           3.6218   42.7069    9.4021 C.2     1  UNL1        0.2292
     16 N           5.0238   42.4757    9.2275 N.am    1  UNL1       -0.2695
     17 H           5.3994   41.6592    9.6294 H       1  UNL1        0.1562
     18 O           3.5766   41.2107   12.3569 O.3     1  UNL1       -0.3533
     19 C           2.8150   41.7050   10.1646 C.3     1  UNL1        0.1088
     20 C           3.4913   40.3659   10.1550 C.3     1  UNL1        0.0437
     21 C           3.6095   40.0188   11.6189 C.3     1  UNL1        0.1428
     22 C           2.7395   42.0735   11.6319 C.3     1  UNL1        0.1512
     23 O          13.3705   40.9599    9.3797 O.2     1  UNL1       -0.2865
     24 C          12.7371   40.2007   10.1603 C.2     1  UNL1        0.2264
     25 C          13.4057   39.7492   11.4198 C.3     1  UNL1        0.0787
     26 C          14.7321   39.0651   11.1110 C.3     1  UNL1        0.0346
     27 C          14.5192   37.7343   10.4679 C.ar    1  UNL1       -0.0217
     28 C          15.2408   37.3771    9.3218 C.ar    1  UNL1       -0.0043
     29 C          15.0331   36.1310    8.7229 C.ar    1  UNL1       -0.0003
     30 C          14.1069   35.2382    9.2704 C.ar    1  UNL1       -0.0000
     31 C          13.3914   35.5898   10.4193 C.ar    1  UNL1       -0.0003
     32 C          13.5995   36.8357   11.0192 C.ar    1  UNL1       -0.0043
@<TRIPOS>BOND
     1    24     2    1
     2    25    24    1
     3    25    26    1
     4    26    27    1
     5    28    29   ar
     6    30    31   ar
     7    32    27   ar
     8     2     8   am
     9     3     8    1
    10     3     4    1
    11     4     5    1
    12     5     6    1
    13     5    12    1
    14     6     7    1
    15     7     8    1
    16     9    10   ar
    17    11    16    1
    18    11    12   ar
    19    19    15    1
    20    19    20    1
    21    20    21    1
    22    21    18    1
    23    22    18    1
    24    22    19    1
    25    12    13   ar
    26    16    15   am
    27    24    23    2
    28    27    28   ar
    29    29    30   ar
    30    31    32   ar
    31     2     1    2
    32     9    13   ar
    33    10    11   ar
    34    15    14    2
    35    16    17    1
@<TRIPOS>MOLECULE
MolPort-004-997-950 CSSS00159751999 MCULE-3010046500 PubChem-45168360
 32 35 0 0 0
SMALL
GASTEIGER

@<TRIPOS>ATOM
      1 O          11.2924   36.7490   10.4266 O.2     1  UNL1       -0.2668
      2 C          12.5112   36.9675   10.1868 C.2     1  UNL1        0.2839
      3 C          11.9588   38.9985    8.8408 C.3     1  UNL1        0.0958
      4 C          12.0230   40.4810    9.1932 C.3     1  UNL1        0.0460
      5 C          13.4434   41.0511    9.0543 C.3     1  UNL1        0.1099
      6 C          14.5540   39.9929    9.0935 C.3     1  UNL1        0.0460
      7 C          14.2038   38.8307   10.0195 C.3     1  UNL1        0.0958
      8 N          12.9064   38.2460    9.6642 N.am    1  UNL1       -0.2736
      9 C          14.4071   42.9369    6.1805 C.ar    1  UNL1        0.1230
     10 C          13.0280   43.0132    6.0153 C.ar    1  UNL1        0.0565
     11 C          12.5367   42.3011    7.0936 C.ar    1  UNL1        0.1325
     12 N          13.5538   41.8416    7.8348 N.ar    1  UNL1       -0.2394
     13 N          14.6948   42.2226    7.2893 N.ar    1  UNL1       -0.1666
     14 O          10.6020   40.8119    5.5045 O.2     1  UNL1       -0.2747
     15 C          10.2381   41.3203    6.6007 C.2     1  UNL1        0.2292
     16 N          11.1576   42.0654    7.4061 N.am    1  UNL1       -0.2695
     17 H          10.8138   42.4484    8.2454 H       1  UNL1        0.1562
     18 O           7.1453   41.3345    5.4148 O.3     1  UNL1       -0.3533
     19 C           8.8298   41.1579    7.0766 C.3     1  UNL1        0.1088
     20 C           8.1586   42.4937    7.2034 C.3     1  UNL1        0.0437
     21 C           6.9175   42.3476    6.3572 C.3     1  UNL1        0.1428
     22 C           7.9939   40.4167    6.0537 C.3     1  UNL1        0.1512
     23 O          14.0451   35.7954   11.5571 O.2     1  UNL1       -0.2865
     24 C          13.4870   35.8846   10.4313 C.2     1  UNL1        0.2264
     25 C          13.7705   34.8332    9.4059 C.3     1  UNL1        0.0787
     26 C          15.1485   35.0396    8.7885 C.3     1  UNL1        0.0346
     27 C          15.7816   33.7364    8.4271 C.ar    1  UNL1       -0.0217
     28 C          17.1515   33.6683    8.1427 C.ar    1  UNL1       -0.0043
     29 C          17.7363   32.4452    7.8012 C.ar    1  UNL1       -0.0003
     30 C          16.9543   31.2875    7.7471 C.ar    1  UNL1       -0.0000
     31 C          15.5882   31.3520    8.0387 C.ar    1  UNL1       -0.0003
     32 C          15.0030   32.5749    8.3812 C.ar    1  UNL1       -0.0043
@<TRIPOS>BOND
     1    24     2    1
     2    25    24    1
     3    25    26    1
     4    26    27    1
     5    28    29   ar
     6    30    31   ar
     7    32    27   ar
     8     2     8   am
     9     3     8    1
    10     3     4    1
    11     4     5    1
    12     5     6    1
    13     5    12    1
    14     6     7    1
    15     7     8    1
    16     9    10   ar
    17    11    16    1
    18    11    12   ar
    19    19    15    1
    20    19    20    1
    21    20    21    1
    22    21    18    1
    23    22    18    1
    24    22    19    1
    25    12    13   ar
    26    16    15   am
    27    24    23    2
    28    27    28   ar
    29    29    30   ar
    30    31    32   ar
    31     2     1    2
    32     9    13   ar
    33    10    11   ar
    34    15    14    2
    35    16    17    1
@<TRIPOS>MOLECULE
MolPort-004-997-950 CSSS00159751999 MCULE-3010046500 PubChem-45168360
 32 35 0 0 0
SMALL
GASTEIGER

@<TRIPOS>ATOM
      1 O          10.2195   40.0686   10.7059 O.2     1  UNL1       -0.2668
      2 C          10.2945   41.0161    9.8768 C.2     1  UNL1        0.2839
      3 C          12.7917   40.9465    9.9105 C.3     1  UNL1        0.0958
      4 C          13.7897   40.3429    8.9277 C.3     1  UNL1        0.0460
      5 C          14.0559   41.2660    7.7282 C.3     1  UNL1        0.1099
      6 C          12.9609   42.3127    7.4830 C.3     1  UNL1        0.0460
      7 C          11.5745   41.7847    7.8433 C.3     1  UNL1        0.0958
      8 N          11.5447   41.2771    9.2190 N.am    1  UNL1       -0.2736
      9 C          16.9779   43.3117    7.5859 C.ar    1  UNL1        0.1230
     10 C          17.4088   42.4167    8.5598 C.ar    1  UNL1        0.0565
     11 C          16.3348   41.5580    8.7028 C.ar    1  UNL1        0.1325
     12 N          15.3481   41.9241    7.8738 N.ar    1  UNL1       -0.2394
     13 N          15.7285   42.9883    7.1901 N.ar    1  UNL1       -0.1666
     14 O          18.4582   39.6818    9.3787 O.2     1  UNL1       -0.2747
     15 C          17.3199   39.5396    9.9046 C.2     1  UNL1        0.2292
     16 N          16.2490   40.4366    9.5918 N.am    1  UNL1       -0.2695
     17 H          15.3802   40.2693   10.0236 H       1  UNL1        0.1562
     18 O          15.3256   36.9207   10.2736 O.3     1  UNL1       -0.3533
     19 C          17.0668   38.4208   10.8639 C.3     1  UNL1        0.1088
     20 C          15.8633   38.7141   11.7104 C.3     1  UNL1        0.0437
     21 C          14.9798   37.5089   11.4987 C.3     1  UNL1        0.1428
     22 C          16.7034   37.1476   10.1283 C.3     1  UNL1        0.1512
     23 O           8.7433   42.6972   10.4869 O.2     1  UNL1       -0.2865
     24 C           9.0923   41.8404    9.6319 C.2     1  UNL1        0.2264
     25 C           8.3212   41.7487    8.3536 C.3     1  UNL1        0.0787
     26 C           6.9206   41.2035    8.6064 C.3     1  UNL1        0.0346
     27 C           5.8969   42.2889    8.5447 C.ar    1  UNL1       -0.0217
     28 C           6.0614   43.3698    7.6690 C.ar    1  UNL1       -0.0043
     29 C           5.1007   44.3842    7.6198 C.ar    1  UNL1       -0.0003
     30 C           3.9722   44.3185    8.4424 C.ar    1  UNL1       -0.0000
     31 C           3.8021   43.2362    9.3114 C.ar    1  UNL1       -0.0003
     32 C           4.7623   42.2208    9.3603 C.ar    1  UNL1       -0.0043
@<TRIPOS>BOND
     1    24     2    1
     2    25    24    1
     3    25    26    1
     4    26    27    1
     5    28    29   ar
     6    30    31   ar
     7    32    27   ar
     8     2     8   am
     9     3     8    1
    10     3     4    1
    11     4     5    1
    12     5     6    1
    13     5    12    1
    14     6     7    1
    15     7     8    1
    16     9    10   ar
    17    11    16    1
    18    11    12   ar
    19    19    15    1
    20    19    20    1
    21    20    21    1
    22    21    18    1
    23    22    18    1
    24    22    19    1
    25    12    13   ar
    26    16    15   am
    27    24    23    2
    28    27    28   ar
    29    29    30   ar
    30    31    32   ar
    31     2     1    2
    32     9    13   ar
    33    10    11   ar
    34    15    14    2
    35    16    17    1
@<TRIPOS>MOLECULE
MolPort-004-997-950 CSSS00159751999 MCULE-3010046500 PubChem-45168360
 32 35 0 0 0
SMALL
GASTEIGER

@<TRIPOS>ATOM
      1 O          13.4398   39.4678   11.6621 O.2     1  UNL1       -0.2668
      2 C          13.2920   39.8783   10.4788 C.2     1  UNL1        0.2839
      3 C          10.8122   40.0072   10.7542 C.3     1  UNL1        0.0958
      4 C           9.8942   41.1972   11.0133 C.3     1  UNL1        0.0460
      5 C           9.5654   41.9695    9.7259 C.3     1  UNL1        0.1099
      6 C          10.5618   41.7405    8.5815 C.3     1  UNL1        0.0460
      7 C          11.9845   41.5338    9.0951 C.3     1  UNL1        0.0958
      8 N          12.0355   40.4539   10.0863 N.am    1  UNL1       -0.2736
      9 C           6.0615   41.4887    9.2412 C.ar    1  UNL1        0.1230
     10 C           6.5070   40.9152    8.0547 C.ar    1  UNL1        0.0565
     11 C           7.8810   41.0478    8.1316 C.ar    1  UNL1        0.1325
     12 N           8.2146   41.6545    9.2785 N.ar    1  UNL1       -0.2394
     13 N           7.1166   41.9264    9.9606 N.ar    1  UNL1       -0.1666
     14 O           7.7409   38.6638    6.4634 O.2     1  UNL1       -0.2747
     15 C           8.7293   39.4397    6.3473 C.2     1  UNL1        0.2292
     16 N           8.8377   40.6170    7.1546 N.am    1  UNL1       -0.2695
     17 H           9.6367   41.1782    7.0282 H       1  UNL1        0.1562
     18 O           9.3624   39.7199    3.1081 O.3     1  UNL1       -0.3533
     19 C           9.8141   39.1373    5.3636 C.3     1  UNL1        0.1088
     20 C           9.4948   37.8903    4.5930 C.3     1  UNL1        0.0437
     21 C           9.5742   38.3344    3.1528 C.3     1  UNL1        0.1428
     22 C           9.9022   40.2170    4.3048 C.3     1  UNL1        0.1512
     23 O          14.7350   38.5786    9.1250 O.2     1  UNL1       -0.2865
     24 C          14.4159   39.7277    9.5307 C.2     1  UNL1        0.2264
     25 C          15.1357   40.9118    8.9677 C.3     1  UNL1        0.0787
     26 C          14.4660   41.3904    7.6851 C.3     1  UNL1        0.0346
     27 C          15.1490   42.5991    7.1351 C.ar    1  UNL1       -0.0217
     28 C          14.5424   43.3590    6.1267 C.ar    1  UNL1       -0.0043
     29 C          15.1898   44.4870    5.6140 C.ar    1  UNL1       -0.0003
     30 C          16.4424   44.8600    6.1105 C.ar    1  UNL1       -0.0000
     31 C          17.0459   44.1074    7.1229 C.ar    1  UNL1       -0.0003
     32 C          16.3983   42.9796    7.6367 C.ar    1  UNL1       -0.0043
@<TRIPOS>BOND
     1    24     2    1
     2    25    24    1
     3    25    26    1
     4    26    27    1
     5    28    29   ar
     6    30    31   ar
     7    32    27   ar
     8     2     8   am
     9     3     8    1
    10     3     4    1
    11     4     5    1
    12     5     6    1
    13     5    12    1
    14     6     7    1
    15     7     8    1
    16     9    10   ar
    17    11    16    1
    18    11    12   ar
    19    19    15    1
    20    19    20    1
    21    20    21    1
    22    21    18    1
    23    22    18    1
    24    22    19    1
    25    12    13   ar
    26    16    15   am
    27    24    23    2
    28    27    28   ar
    29    29    30   ar
    30    31    32   ar
    31     2     1    2
    32     9    13   ar
    33    10    11   ar
    34    15    14    2
    35    16    17    1
