@<TRIPOS>MOLECULE
Molport-047-886-515
 21 21 0 0 0
SMALL
GASTEIGER

@<TRIPOS>ATOM
      1 C          13.4269   42.4007    6.6357 C.ar    1  UNL1        0.1596
      2 C          13.7648   41.4897    7.6219 C.ar    1  UNL1        0.1401
      3 C          11.7683   41.1077    7.0000 C.ar    1  UNL1        0.2035
      4 BR         15.4264   41.3441    8.5558 Br      1  UNL1       -0.0262
      5 N          12.7194   40.6716    7.8546 N.ar    1  UNL1       -0.2065
      6 N          12.1650   42.1523    6.2486 N.ar    1  UNL1       -0.3197
      7 H          11.6433   42.6302    5.5640 H       1  UNL1        0.1688
      8 C           9.4218   40.6971    7.8640 C.2     1  UNL1        0.4073
      9 O           9.6209   41.3933    8.8960 O.2     1  UNL1       -0.2260
     10 N          10.4613   40.5264    6.8918 N.am    1  UNL1       -0.2211
     11 H          10.2658   39.9753    6.0997 H       1  UNL1        0.1610
     12 O           8.1836   40.0753    7.6429 O.3     1  UNL1       -0.4417
     13 C           6.9893   40.7061    7.1559 C.3     1  UNL1        0.1378
     14 C           7.4230   41.9485    6.3629 C.3     1  UNL1        0.0437
     15 C           6.0941   41.1522    8.3280 C.3     1  UNL1        0.0437
     16 C           6.2200   39.7593    6.2148 C.3     1  UNL1        0.0437
     17 C          14.2610   43.4731    6.0690 C.2     1  UNL1        0.3592
     18 O          13.7278   44.4445    5.4675 O.2     1  UNL1       -0.2432
     19 O          15.6525   43.3975    6.1998 O.3     1  UNL1       -0.4444
     20 C          17.8411   43.9959    7.0625 C.3     1  UNL1        0.0513
     21 C          16.4613   44.4867    6.6401 C.3     1  UNL1        0.2089
@<TRIPOS>BOND
     1    20    21    1
     2    21    19    1
     3    17    19    1
     4    17     1    1
     5     2     4    1
     6     2     5   ar
     7     3    10    1
     8     3     6   ar
     9     8    12    1
    10    13    12    1
    11    13    14    1
    12    13    15    1
    13    13    16    1
    14    10     8   am
    15     6     1   ar
    16    17    18    2
    17     1     2   ar
    18     3     5   ar
    19     8     9    2
    20    10    11    1
    21     6     7    1
@<TRIPOS>MOLECULE
Molport-047-886-515
 21 21 0 0 0
SMALL
GASTEIGER

@<TRIPOS>ATOM
      1 C          13.7553   43.0089    6.2864 C.ar    1  UNL1        0.1596
      2 C          13.9592   42.1047    7.3148 C.ar    1  UNL1        0.1401
      3 C          11.9050   42.0614    6.7700 C.ar    1  UNL1        0.2035
      4 BR         15.6005   41.7077    8.2107 Br      1  UNL1       -0.0262
      5 N          12.7925   41.5046    7.6229 N.ar    1  UNL1       -0.2065
      6 N          12.4558   42.9750    5.9485 N.ar    1  UNL1       -0.3197
      7 H          12.0041   43.5034    5.2513 H       1  UNL1        0.1688
      8 C           9.8698   41.0816    5.6215 C.2     1  UNL1        0.4073
      9 O          10.5302   40.7747    4.5924 O.2     1  UNL1       -0.2260
     10 N          10.5113   41.7235    6.7311 N.am    1  UNL1       -0.2211
     11 H           9.9606   41.9466    7.5160 H       1  UNL1        0.1610
     12 O           8.4971   40.8034    5.7053 O.3     1  UNL1       -0.4417
     13 C           7.8564   39.9661    6.6799 C.3     1  UNL1        0.1378
     14 C           6.4916   39.5601    6.1028 C.3     1  UNL1        0.0437
     15 C           7.6305   40.7376    7.9944 C.3     1  UNL1        0.0437
     16 C           8.6874   38.6936    6.9331 C.3     1  UNL1        0.0437
     17 C          14.7479   43.8797    5.6358 C.2     1  UNL1        0.3592
     18 O          14.8928   43.8559    4.3835 O.2     1  UNL1       -0.2432
     19 O          15.5332   44.7285    6.4245 O.3     1  UNL1       -0.4444
     20 C          17.6854   43.8680    5.7039 C.3     1  UNL1        0.0513
     21 C          16.8501   44.3998    6.8626 C.3     1  UNL1        0.2089
@<TRIPOS>BOND
     1    20    21    1
     2    21    19    1
     3    17    19    1
     4    17     1    1
     5     2     4    1
     6     2     5   ar
     7     3    10    1
     8     3     6   ar
     9     8    12    1
    10    13    12    1
    11    13    14    1
    12    13    15    1
    13    13    16    1
    14    10     8   am
    15     6     1   ar
    16    17    18    2
    17     1     2   ar
    18     3     5   ar
    19     8     9    2
    20    10    11    1
    21     6     7    1
@<TRIPOS>MOLECULE
Molport-047-886-515
 21 21 0 0 0
SMALL
GASTEIGER

@<TRIPOS>ATOM
      1 C          10.8336   41.3319    6.0507 C.ar    1  UNL1        0.1596
      2 C          10.4842   41.5120    7.3782 C.ar    1  UNL1        0.1401
      3 C          12.4548   42.2544    7.0880 C.ar    1  UNL1        0.2035
      4 BR          8.8367   41.0405    8.2251 Br      1  UNL1       -0.0262
      5 N          11.5061   42.0943    8.0363 N.ar    1  UNL1       -0.2065
      6 N          12.0791   41.8036    5.8762 N.ar    1  UNL1       -0.3197
      7 H          12.6034   41.8168    5.0430 H       1  UNL1        0.1688
      8 C          14.3004   43.9041    6.5463 C.2     1  UNL1        0.4073
      9 O          13.6624   44.3811    5.5692 O.2     1  UNL1       -0.2260
     10 N          13.7396   42.8444    7.3319 N.am    1  UNL1       -0.2211
     11 H          14.2695   42.4997    8.0866 H       1  UNL1        0.1610
     12 O          15.5692   44.3969    6.8871 O.3     1  UNL1       -0.4417
     13 C          16.7141   43.6147    7.2596 C.3     1  UNL1        0.1378
     14 C          17.6729   43.6128    6.0590 C.3     1  UNL1        0.0437
     15 C          16.3024   42.1625    7.5690 C.3     1  UNL1        0.0437
     16 C          17.4325   44.2448    8.4683 C.3     1  UNL1        0.0437
     17 C          10.0251   40.7370    4.9739 C.2     1  UNL1        0.3592
     18 O           8.7660   40.7728    5.0286 O.2     1  UNL1       -0.2432
     19 O          10.6710   40.1256    3.8931 O.3     1  UNL1       -0.4444
     20 C           9.7064   38.0586    3.0629 C.3     1  UNL1        0.0513
     21 C          10.8719   38.7172    3.7916 C.3     1  UNL1        0.2089
@<TRIPOS>BOND
     1    20    21    1
     2    21    19    1
     3    17    19    1
     4    17     1    1
     5     2     4    1
     6     2     5   ar
     7     3    10    1
     8     3     6   ar
     9     8    12    1
    10    13    12    1
    11    13    14    1
    12    13    15    1
    13    13    16    1
    14    10     8   am
    15     6     1   ar
    16    17    18    2
    17     1     2   ar
    18     3     5   ar
    19     8     9    2
    20    10    11    1
    21     6     7    1
@<TRIPOS>MOLECULE
Molport-047-886-515
 21 21 0 0 0
SMALL
GASTEIGER

@<TRIPOS>ATOM
      1 C          14.0443   41.4643    7.8214 C.ar    1  UNL1        0.1596
      2 C          14.3991   42.5419    7.0279 C.ar    1  UNL1        0.1401
      3 C          12.3424   42.1108    6.7074 C.ar    1  UNL1        0.2035
      4 BR         16.1131   43.3776    6.8939 Br      1  UNL1       -0.0262
      5 N          13.3265   42.9526    6.3228 N.ar    1  UNL1       -0.2065
      6 N          12.7442   41.1990    7.6130 N.ar    1  UNL1       -0.3197
      7 H          12.2026   40.4914    8.0316 H       1  UNL1        0.1688
      8 C          10.1106   41.0453    6.1550 C.2     1  UNL1        0.4073
      9 O          10.4896   39.9125    6.5581 O.2     1  UNL1       -0.2260
     10 N          10.9981   42.1696    6.2099 N.am    1  UNL1       -0.2211
     11 H          10.6640   43.0371    5.8856 H       1  UNL1        0.1610
     12 O           8.8167   41.2323    5.6454 O.3     1  UNL1       -0.4417
     13 C           7.6141   41.3904    6.4135 C.3     1  UNL1        0.1378
     14 C           8.0329   41.5740    7.8803 C.3     1  UNL1        0.0437
     15 C           6.7299   40.1334    6.3028 C.3     1  UNL1        0.0437
     16 C           6.8389   42.6415    5.9576 C.3     1  UNL1        0.0437
     17 C          14.8963   40.7042    8.7506 C.2     1  UNL1        0.3592
     18 O          16.1205   40.9831    8.8656 O.2     1  UNL1       -0.2432
     19 O          14.3325   39.6643    9.4989 O.3     1  UNL1       -0.4444
     20 C          14.2754   38.8340   11.7791 C.3     1  UNL1        0.0513
     21 C          13.7361   39.8518   10.7808 C.3     1  UNL1        0.2089
@<TRIPOS>BOND
     1    20    21    1
     2    21    19    1
     3    17    19    1
     4    17     1    1
     5     2     4    1
     6     2     5   ar
     7     3    10    1
     8     3     6   ar
     9     8    12    1
    10    13    12    1
    11    13    14    1
    12    13    15    1
    13    13    16    1
    14    10     8   am
    15     6     1   ar
    16    17    18    2
    17     1     2   ar
    18     3     5   ar
    19     8     9    2
    20    10    11    1
    21     6     7    1
@<TRIPOS>MOLECULE
Molport-047-886-515
 21 21 0 0 0
SMALL
GASTEIGER

@<TRIPOS>ATOM
      1 C          14.2926   41.8693    7.6406 C.ar    1  UNL1        0.1596
      2 C          13.7434   40.9531    8.5213 C.ar    1  UNL1        0.1401
      3 C          12.1813   41.7801    7.3404 C.ar    1  UNL1        0.2035
      4 BR         14.6577   39.8962    9.8255 Br      1  UNL1       -0.0262
      5 N          12.4100   40.8944    8.3345 N.ar    1  UNL1       -0.2065
      6 N          13.2995   42.3865    6.8987 N.ar    1  UNL1       -0.3197
      7 H          13.3731   43.0622    6.1865 H       1  UNL1        0.1688
      8 C          10.0155   41.0639    6.2370 C.2     1  UNL1        0.4073
      9 O          10.3725   39.8556    6.1950 O.2     1  UNL1       -0.2260
     10 N          10.8825   42.0580    6.7983 N.am    1  UNL1       -0.2211
     11 H          10.5666   42.9903    6.8126 H       1  UNL1        0.1610
     12 O           8.7665   41.4633    5.7379 O.3     1  UNL1       -0.4417
     13 C           7.5367   41.5295    6.4758 C.3     1  UNL1        0.1378
     14 C           7.9046   41.7139    7.9561 C.3     1  UNL1        0.0437
     15 C           6.7395   40.2199    6.3214 C.3     1  UNL1        0.0437
     16 C           6.6935   42.7356    6.0192 C.3     1  UNL1        0.0437
     17 C          15.7070   42.2500    7.4947 C.2     1  UNL1        0.3592
     18 O          16.6072   41.5968    8.0886 O.2     1  UNL1       -0.2432
     19 O          16.0394   43.3495    6.6948 O.3     1  UNL1       -0.4444
     20 C          18.0422   44.0511    7.8731 C.3     1  UNL1        0.0513
     21 C          17.3742   43.8216    6.5225 C.3     1  UNL1        0.2089
@<TRIPOS>BOND
     1    20    21    1
     2    21    19    1
     3    17    19    1
     4    17     1    1
     5     2     4    1
     6     2     5   ar
     7     3    10    1
     8     3     6   ar
     9     8    12    1
    10    13    12    1
    11    13    14    1
    12    13    15    1
    13    13    16    1
    14    10     8   am
    15     6     1   ar
    16    17    18    2
    17     1     2   ar
    18     3     5   ar
    19     8     9    2
    20    10    11    1
    21     6     7    1
@<TRIPOS>MOLECULE
Molport-047-886-515
 21 21 0 0 0
SMALL
GASTEIGER

@<TRIPOS>ATOM
      1 C          10.3578   41.4446    8.3566 C.ar    1  UNL1        0.1596
      2 C          10.8551   41.3724    9.6467 C.ar    1  UNL1        0.1401
      3 C          12.4819   41.6477    8.3064 C.ar    1  UNL1        0.2035
      4 BR          9.8676   41.1326   11.2657 Br      1  UNL1       -0.0262
      5 N          12.1964   41.5001    9.6186 N.ar    1  UNL1       -0.2065
      6 N          11.3915   41.6187    7.5169 N.ar    1  UNL1       -0.3197
      7 H          11.3590   41.7061    6.5368 H       1  UNL1        0.1688
      8 C          14.1626   42.7747    6.7813 C.2     1  UNL1        0.4073
      9 O          13.2867   43.5344    6.2864 O.2     1  UNL1       -0.2260
     10 N          13.8092   41.8194    7.7898 N.am    1  UNL1       -0.2211
     11 H          14.5224   41.2448    8.1509 H       1  UNL1        0.1610
     12 O          15.4988   42.8456    6.3588 O.3     1  UNL1       -0.4417
     13 C          16.3646   43.9862    6.4618 C.3     1  UNL1        0.1378
     14 C          16.8137   44.0845    7.9278 C.3     1  UNL1        0.0437
     15 C          15.6105   45.2762    6.0856 C.3     1  UNL1        0.0437
     16 C          17.6092   43.8055    5.5717 C.3     1  UNL1        0.0437
     17 C           8.9547   41.3553    7.9203 C.2     1  UNL1        0.3592
     18 O           8.3890   40.2330    7.8198 O.2     1  UNL1       -0.2432
     19 O           8.2592   42.5302    7.6120 O.3     1  UNL1       -0.4444
     20 C           8.0553   44.3990    9.1476 C.3     1  UNL1        0.0513
     21 C           7.3783   43.1846    8.5231 C.3     1  UNL1        0.2089
@<TRIPOS>BOND
     1    20    21    1
     2    21    19    1
     3    17    19    1
     4    17     1    1
     5     2     4    1
     6     2     5   ar
     7     3    10    1
     8     3     6   ar
     9     8    12    1
    10    13    12    1
    11    13    14    1
    12    13    15    1
    13    13    16    1
    14    10     8   am
    15     6     1   ar
    16    17    18    2
    17     1     2   ar
    18     3     5   ar
    19     8     9    2
    20    10    11    1
    21     6     7    1
@<TRIPOS>MOLECULE
Molport-047-886-515
 21 21 0 0 0
SMALL
GASTEIGER

@<TRIPOS>ATOM
      1 C          10.1270   41.7240    7.5723 C.ar    1  UNL1        0.1596
      2 C          10.2166   41.9875    8.9285 C.ar    1  UNL1        0.1401
      3 C          12.1740   42.0185    8.0999 C.ar    1  UNL1        0.2035
      4 BR          8.7876   42.0904   10.1938 Br      1  UNL1       -0.0262
      5 N          11.5082   42.1738    9.2652 N.ar    1  UNL1       -0.2065
      6 N          11.3672   41.7458    7.0570 N.ar    1  UNL1       -0.3197
      7 H          11.6294   41.5950    6.1201 H       1  UNL1        0.1688
      8 C          14.2673   42.5380    6.7699 C.2     1  UNL1        0.4073
      9 O          13.6053   42.8274    5.7367 O.2     1  UNL1       -0.2260
     10 N          13.5983   42.1302    7.9702 N.am    1  UNL1       -0.2211
     11 H          14.1513   41.9130    8.7553 H       1  UNL1        0.1610
     12 O          15.6687   42.6080    6.7699 O.3     1  UNL1       -0.4417
     13 C          16.4611   43.8042    6.7202 C.3     1  UNL1        0.1378
     14 C          16.9430   44.0895    8.1509 C.3     1  UNL1        0.0437
     15 C          15.6148   44.9965    6.2339 C.3     1  UNL1        0.0437
     16 C          17.6899   43.6044    5.8124 C.3     1  UNL1        0.0437
     17 C           8.9153   41.4610    6.7788 C.2     1  UNL1        0.3592
     18 O           8.7088   42.0876    5.7044 O.2     1  UNL1       -0.2432
     19 O           7.9926   40.5125    7.2352 O.3     1  UNL1       -0.4444
     20 C           9.0909   38.3541    7.0702 C.3     1  UNL1        0.0513
     21 C           7.8805   39.1991    6.6905 C.3     1  UNL1        0.2089
@<TRIPOS>BOND
     1    20    21    1
     2    21    19    1
     3    17    19    1
     4    17     1    1
     5     2     4    1
     6     2     5   ar
     7     3    10    1
     8     3     6   ar
     9     8    12    1
    10    13    12    1
    11    13    14    1
    12    13    15    1
    13    13    16    1
    14    10     8   am
    15     6     1   ar
    16    17    18    2
    17     1     2   ar
    18     3     5   ar
    19     8     9    2
    20    10    11    1
    21     6     7    1
@<TRIPOS>MOLECULE
Molport-047-886-515
 21 21 0 0 0
SMALL
GASTEIGER

@<TRIPOS>ATOM
      1 C          13.1785   40.9831    9.2616 C.ar    1  UNL1        0.1596
      2 C          12.8896   40.2274   10.3850 C.ar    1  UNL1        0.1401
      3 C          11.2002   41.4326    9.9246 C.ar    1  UNL1        0.2035
      4 BR         14.0222   38.9621   11.2627 Br      1  UNL1       -0.0262
      5 N          11.6408   40.5089   10.8065 N.ar    1  UNL1       -0.2065
      6 N          12.1065   41.7409    8.9777 N.ar    1  UNL1       -0.3197
      7 H          12.0054   42.3826    8.2379 H       1  UNL1        0.1688
      8 C           9.1085   42.3455    8.8233 C.2     1  UNL1        0.4073
      9 O           9.5412   42.0932    7.6664 O.2     1  UNL1       -0.2260
     10 N           9.8989   42.0343    9.9779 N.am    1  UNL1       -0.2211
     11 H           9.5252   42.2468   10.8636 H       1  UNL1        0.1610
     12 O           7.8484   42.9343    9.0080 O.3     1  UNL1       -0.4417
     13 C           6.6023   42.2420    9.1790 C.3     1  UNL1        0.1378
     14 C           5.4801   43.2766    9.0034 C.3     1  UNL1        0.0437
     15 C           6.5056   41.6392   10.5937 C.3     1  UNL1        0.0437
     16 C           6.4390   41.1453    8.1091 C.3     1  UNL1        0.0437
     17 C          14.4218   40.9956    8.4734 C.2     1  UNL1        0.3592
     18 O          14.4848   41.6426    7.3931 O.2     1  UNL1       -0.2432
     19 O          15.5298   40.2753    8.9343 O.3     1  UNL1       -0.4444
     20 C          17.3163   41.8930    8.6453 C.3     1  UNL1        0.0513
     21 C          16.6520   40.8818    9.5724 C.3     1  UNL1        0.2089
@<TRIPOS>BOND
     1    20    21    1
     2    21    19    1
     3    17    19    1
     4    17     1    1
     5     2     4    1
     6     2     5   ar
     7     3    10    1
     8     3     6   ar
     9     8    12    1
    10    13    12    1
    11    13    14    1
    12    13    15    1
    13    13    16    1
    14    10     8   am
    15     6     1   ar
    16    17    18    2
    17     1     2   ar
    18     3     5   ar
    19     8     9    2
    20    10    11    1
    21     6     7    1
@<TRIPOS>MOLECULE
Molport-047-886-515
 21 21 0 0 0
SMALL
GASTEIGER

@<TRIPOS>ATOM
      1 C           5.0796   43.0985    8.7067 C.ar    1  UNL1        0.1596
      2 C           4.9361   44.1359    7.8012 C.ar    1  UNL1        0.1401
      3 C           6.8293   43.2205    7.4905 C.ar    1  UNL1        0.2035
      4 BR          3.4443   45.3149    7.6048 Br      1  UNL1       -0.0262
      5 N           6.0396   44.2159    7.0316 N.ar    1  UNL1       -0.2065
      6 N           6.2774   42.5258    8.5034 N.ar    1  UNL1       -0.3197
      7 H           6.6673   41.7636    8.9895 H       1  UNL1        0.1688
      8 C           8.3778   41.9373    5.9489 C.2     1  UNL1        0.4073
      9 O           7.4272   41.2685    5.4608 O.2     1  UNL1       -0.2260
     10 N           8.1287   42.9206    6.9617 N.am    1  UNL1       -0.2211
     11 H           8.8980   43.4217    7.3170 H       1  UNL1        0.1610
     12 O           9.6968   41.7366    5.5144 O.3     1  UNL1       -0.4417
     13 C          10.5595   40.6510    5.8864 C.3     1  UNL1        0.1378
     14 C          10.7217   39.7551    4.6488 C.3     1  UNL1        0.0437
     15 C           9.9294   39.8210    7.0215 C.3     1  UNL1        0.0437
     16 C          11.9460   41.1776    6.3040 C.3     1  UNL1        0.0437
     17 C           4.1228   42.6530    9.7328 C.2     1  UNL1        0.3592
     18 O           2.8924   42.5788    9.4674 O.2     1  UNL1       -0.2432
     19 O           4.5945   42.3198   11.0078 O.3     1  UNL1       -0.4444
     20 C           3.8889   40.0456   11.4791 C.3     1  UNL1        0.0513
     21 C           5.0571   41.0173   11.3595 C.3     1  UNL1        0.2089
@<TRIPOS>BOND
     1    20    21    1
     2    21    19    1
     3    17    19    1
     4    17     1    1
     5     2     4    1
     6     2     5   ar
     7     3    10    1
     8     3     6   ar
     9     8    12    1
    10    13    12    1
    11    13    14    1
    12    13    15    1
    13    13    16    1
    14    10     8   am
    15     6     1   ar
    16    17    18    2
    17     1     2   ar
    18     3     5   ar
    19     8     9    2
    20    10    11    1
    21     6     7    1
@<TRIPOS>MOLECULE
Molport-047-886-515
 21 21 0 0 0
SMALL
GASTEIGER

@<TRIPOS>ATOM
      1 C          14.0114   39.4285   10.8017 C.ar    1  UNL1        0.1596
      2 C          14.7815   40.1338    9.8928 C.ar    1  UNL1        0.1401
      3 C          12.7582   40.7547    9.6944 C.ar    1  UNL1        0.2035
      4 BR         16.6678   40.0023    9.6122 Br      1  UNL1       -0.0262
      5 N          13.9931   40.9723    9.1916 N.ar    1  UNL1       -0.2065
      6 N          12.7354   39.8268   10.6699 N.ar    1  UNL1       -0.3197
      7 H          11.9533   39.5093   11.1766 H       1  UNL1        0.1688
      8 C          10.3903   40.7748    8.7925 C.2     1  UNL1        0.4073
      9 O          10.3294   39.5158    8.7703 O.2     1  UNL1       -0.2260
     10 N          11.5787   41.4364    9.2447 N.am    1  UNL1       -0.2211
     11 H          11.5861   42.4209    9.2469 H       1  UNL1        0.1610
     12 O           9.3010   41.5555    8.3769 O.3     1  UNL1       -0.4417
     13 C           8.2050   41.9917    9.1954 C.3     1  UNL1        0.1378
     14 C           8.0264   43.4978    8.9503 C.3     1  UNL1        0.0437
     15 C           8.5173   41.7646   10.6871 C.3     1  UNL1        0.0437
     16 C           6.9061   41.2656    8.7959 C.3     1  UNL1        0.0437
     17 C          14.4557   38.4113   11.7686 C.2     1  UNL1        0.3592
     18 O          15.3981   38.6610   12.5682 O.2     1  UNL1       -0.2432
     19 O          13.8244   37.1622   11.7845 O.3     1  UNL1       -0.4444
     20 C          12.0240   36.1516   10.5079 C.3     1  UNL1        0.0513
     21 C          13.5214   36.4192   10.6053 C.3     1  UNL1        0.2089
@<TRIPOS>BOND
     1    20    21    1
     2    21    19    1
     3    17    19    1
     4    17     1    1
     5     2     4    1
     6     2     5   ar
     7     3    10    1
     8     3     6   ar
     9     8    12    1
    10    13    12    1
    11    13    14    1
    12    13    15    1
    13    13    16    1
    14    10     8   am
    15     6     1   ar
    16    17    18    2
    17     1     2   ar
    18     3     5   ar
    19     8     9    2
    20    10    11    1
    21     6     7    1
