@<TRIPOS>MOLECULE
MolPort-010-691-620 ChemDiv-L497-0025 MCULE-6783665137 PubChem-50829217
 31 34 0 0 0
SMALL
GASTEIGER

@<TRIPOS>ATOM
      1 C          15.6276   37.6933   10.2935 C.2     1  UNL1        0.2278
      2 N          16.2997   37.4058    9.0640 N.am    1  UNL1       -0.2837
      3 O          15.2429   36.7599   11.0501 O.2     1  UNL1       -0.2747
      4 H          16.3589   38.1316    8.4015 H       1  UNL1        0.1549
      5 C          19.0587   36.3898   10.1111 C.3     1  UNL1        0.0395
      6 C          18.1135   35.6753    9.2091 C.ar    1  UNL1        0.0223
      7 C          16.8939   36.1490    8.7168 C.ar    1  UNL1        0.0542
      8 C          16.3102   35.3124    7.7574 C.ar    1  UNL1        0.0414
      9 C          17.0647   34.1698    7.5307 C.ar    1  UNL1        0.1526
     10 S          18.4574   34.2073    8.4695 S.2     1  UNL1       -0.0703
     11 O          15.2635   32.4240    6.6383 O.2     1  UNL1       -0.1523
     12 O          17.6169   31.7535    6.5845 O.2     1  UNL1       -0.1523
     13 S          16.6678   32.9024    6.3867 S.O2    1  UNL1        0.0690
     14 C          15.5282   34.1059    4.3958 C.3     1  UNL1        0.0959
     15 C          15.7290   35.5902    4.1791 C.3     1  UNL1        0.0206
     16 C          17.2116   35.7498    4.0083 C.3     1  UNL1        0.0206
     17 C          17.7918   34.5911    4.7793 C.3     1  UNL1        0.0959
     18 N          16.8103   33.5115    4.7673 N.3     1  UNL1       -0.1551
     19 C          15.3243   39.1140   10.6394 C.3     1  UNL1        0.1060
     20 C          16.3014   40.0651    9.9325 C.3     1  UNL1        0.1077
     21 C          14.1193   40.6431    9.3122 C.2     1  UNL1        0.2299
     22 C          13.9054   39.4881   10.2032 C.3     1  UNL1        0.0964
     23 N          15.4882   40.9788    9.1486 N.am    1  UNL1       -0.2581
     24 O          13.1770   41.2623    8.7518 O.2     1  UNL1       -0.2745
     25 C          16.0303   42.0360    8.3344 C.ar    1  UNL1        0.0547
     26 C          15.3108   42.5087    7.2252 C.ar    1  UNL1        0.0263
     27 C          15.8263   43.5336    6.4271 C.ar    1  UNL1        0.0589
     28 C          17.0678   44.0975    6.7297 C.ar    1  UNL1        0.0115
     29 C          17.7935   43.6362    7.8305 C.ar    1  UNL1        0.0021
     30 C          17.2771   42.6110    8.6279 C.ar    1  UNL1        0.0150
     31 CL         14.9155   44.1105    5.0487 Cl      1  UNL1       -0.0822
@<TRIPOS>BOND
     1     5     6    1
     2     6    10   ar
     3     7     2    1
     4     7     8   ar
     5    19     1    1
     6    19    20    1
     7    20    23    1
     8    22    21    1
     9    22    19    1
    10    26    27   ar
    11    27    31    1
    12    28    29   ar
    13    30    25   ar
    14     9    10   ar
    15    14    18    1
    16    14    15    1
    17    15    16    1
    18    16    17    1
    19    17    18    1
    20     2     1   am
    21    23    21   am
    22    23    25    1
    23    13     9    1
    24    13    18    1
    25     6     7   ar
    26     1     3    2
    27    21    24    2
    28    25    26   ar
    29    27    28   ar
    30    29    30   ar
    31     8     9   ar
    32    13    11    2
    33    13    12    2
    34     2     4    1
@<TRIPOS>MOLECULE
MolPort-010-691-620 ChemDiv-L497-0025 MCULE-6783665137 PubChem-50829217
 31 34 0 0 0
SMALL
GASTEIGER

@<TRIPOS>ATOM
      1 C          10.5757   40.8228    8.3183 C.2     1  UNL1        0.2278
      2 N          11.6074   40.5448    7.3673 N.am    1  UNL1       -0.2837
      3 O          10.8253   41.4832    9.3639 O.2     1  UNL1       -0.2747
      4 H          11.4344   39.8340    6.7084 H       1  UNL1        0.1549
      5 C          14.0248   40.0000    9.2648 C.3     1  UNL1        0.0395
      6 C          13.9682   40.9511    8.1203 C.ar    1  UNL1        0.0223
      7 C          12.8717   41.2150    7.2942 C.ar    1  UNL1        0.0542
      8 C          13.0763   42.2811    6.4096 C.ar    1  UNL1        0.0414
      9 C          14.3484   42.8231    6.5283 C.ar    1  UNL1        0.1526
     10 S          15.1997   42.0271    7.7383 S.2     1  UNL1       -0.0703
     11 O          14.0156   45.3431    5.7363 O.2     1  UNL1       -0.1523
     12 O          15.0524   43.7855    4.1583 O.2     1  UNL1       -0.1523
     13 S          14.9627   44.1812    5.6058 S.O2    1  UNL1        0.0690
     14 C          16.5752   44.3416    7.6270 C.3     1  UNL1        0.0959
     15 C          17.6022   43.2585    7.8777 C.3     1  UNL1        0.0206
     16 C          18.4438   43.2412    6.6350 C.3     1  UNL1        0.0206
     17 C          17.5136   43.7451    5.5606 C.3     1  UNL1        0.0959
     18 N          16.5353   44.6231    6.1937 N.3     1  UNL1       -0.1551
     19 C           9.2105   40.2615    8.0923 C.3     1  UNL1        0.1060
     20 C           8.1550   41.0793    8.8515 C.3     1  UNL1        0.1077
     21 C           7.6024   41.0792    6.5766 C.2     1  UNL1        0.2299
     22 C           8.8495   40.2933    6.6049 C.3     1  UNL1        0.0964
     23 N           7.1988   41.5362    7.8578 N.am    1  UNL1       -0.2581
     24 O           6.9667   41.3211    5.5170 O.2     1  UNL1       -0.2745
     25 C           6.0439   42.3392    8.1677 C.ar    1  UNL1        0.0547
     26 C           5.0532   41.8428    9.0302 C.ar    1  UNL1        0.0263
     27 C           3.9278   42.6120    9.3382 C.ar    1  UNL1        0.0589
     28 C           3.7805   43.8869    8.7869 C.ar    1  UNL1        0.0115
     29 C           4.7590   44.3922    7.9275 C.ar    1  UNL1        0.0021
     30 C           5.8841   43.6220    7.6199 C.ar    1  UNL1        0.0150
     31 CL          2.7033   41.9774   10.4154 Cl      1  UNL1       -0.0822
@<TRIPOS>BOND
     1     5     6    1
     2     6    10   ar
     3     7     2    1
     4     7     8   ar
     5    19     1    1
     6    19    20    1
     7    20    23    1
     8    22    21    1
     9    22    19    1
    10    26    27   ar
    11    27    31    1
    12    28    29   ar
    13    30    25   ar
    14     9    10   ar
    15    14    18    1
    16    14    15    1
    17    15    16    1
    18    16    17    1
    19    17    18    1
    20     2     1   am
    21    23    21   am
    22    23    25    1
    23    13     9    1
    24    13    18    1
    25     6     7   ar
    26     1     3    2
    27    21    24    2
    28    25    26   ar
    29    27    28   ar
    30    29    30   ar
    31     8     9   ar
    32    13    11    2
    33    13    12    2
    34     2     4    1
@<TRIPOS>MOLECULE
MolPort-010-691-620 ChemDiv-L497-0025 MCULE-6783665137 PubChem-50829217
 31 34 0 0 0
SMALL
GASTEIGER

@<TRIPOS>ATOM
      1 C          15.7406   37.6813   10.2681 C.2     1  UNL1        0.2278
      2 N          16.5459   37.4261    9.1138 N.am    1  UNL1       -0.2837
      3 O          15.2680   36.7283   10.9465 O.2     1  UNL1       -0.2747
      4 H          16.6833   38.1714    8.4854 H       1  UNL1        0.1549
      5 C          19.1596   36.3511   10.4381 C.3     1  UNL1        0.0395
      6 C          18.3209   35.6747    9.4101 C.ar    1  UNL1        0.0223
      7 C          17.1691   36.1755    8.7963 C.ar    1  UNL1        0.0542
      8 C          16.6955   35.3754    7.7490 C.ar    1  UNL1        0.0414
      9 C          17.4647   34.2337    7.5734 C.ar    1  UNL1        0.1526
     10 S          18.7397   34.2280    8.6673 S.2     1  UNL1       -0.0703
     11 O          18.5175   32.5775    5.7743 O.2     1  UNL1       -0.1523
     12 O          16.3523   33.5923    5.2519 O.2     1  UNL1       -0.1523
     13 S          17.1955   33.0073    6.3503 S.O2    1  UNL1        0.0690
     14 C          15.8215   32.0726    8.3376 C.3     1  UNL1        0.0959
     15 C          14.3124   31.9906    8.2565 C.3     1  UNL1        0.0206
     16 C          14.0453   31.1063    7.0735 C.3     1  UNL1        0.0206
     17 C          15.2551   31.3015    6.1950 C.3     1  UNL1        0.0959
     18 N          16.3808   31.6467    7.0566 N.3     1  UNL1       -0.1551
     19 C          15.4073   39.0932   10.6223 C.3     1  UNL1        0.1060
     20 C          16.3673   40.0686    9.9250 C.3     1  UNL1        0.1077
     21 C          14.1761   40.6064    9.3009 C.2     1  UNL1        0.2299
     22 C          13.9826   39.4414   10.1835 C.3     1  UNL1        0.0964
     23 N          15.5385   40.9708    9.1444 N.am    1  UNL1       -0.2581
     24 O          13.2233   41.2102    8.7412 O.2     1  UNL1       -0.2745
     25 C          16.0618   42.0442    8.3391 C.ar    1  UNL1        0.0547
     26 C          15.3336   42.5140    7.2343 C.ar    1  UNL1        0.0263
     27 C          15.8309   43.5545    6.4449 C.ar    1  UNL1        0.0589
     28 C          17.0627   44.1371    6.7517 C.ar    1  UNL1        0.0115
     29 C          17.7969   43.6788    7.8481 C.ar    1  UNL1        0.0021
     30 C          17.2987   42.6380    8.6370 C.ar    1  UNL1        0.0150
     31 CL         14.9094   44.1274    5.0719 Cl      1  UNL1       -0.0822
@<TRIPOS>BOND
     1     5     6    1
     2     6    10   ar
     3     7     2    1
     4     7     8   ar
     5    19     1    1
     6    19    20    1
     7    20    23    1
     8    22    21    1
     9    22    19    1
    10    26    27   ar
    11    27    31    1
    12    28    29   ar
    13    30    25   ar
    14     9    10   ar
    15    14    18    1
    16    14    15    1
    17    15    16    1
    18    16    17    1
    19    17    18    1
    20     2     1   am
    21    23    21   am
    22    23    25    1
    23    13     9    1
    24    13    18    1
    25     6     7   ar
    26     1     3    2
    27    21    24    2
    28    25    26   ar
    29    27    28   ar
    30    29    30   ar
    31     8     9   ar
    32    13    11    2
    33    13    12    2
    34     2     4    1
@<TRIPOS>MOLECULE
MolPort-010-691-620 ChemDiv-L497-0025 MCULE-6783665137 PubChem-50829217
 31 34 0 0 0
SMALL
GASTEIGER

@<TRIPOS>ATOM
      1 C          11.3477   39.6962    9.3585 C.2     1  UNL1        0.2278
      2 N          10.7570   40.9951    9.4584 N.am    1  UNL1       -0.2837
      3 O          10.9398   38.7464   10.0819 O.2     1  UNL1       -0.2747
      4 H          11.2558   41.7491    9.0686 H       1  UNL1        0.1549
      5 C          10.2998   41.2266   12.5371 C.3     1  UNL1        0.0395
      6 C           9.2966   41.4272   11.4549 C.ar    1  UNL1        0.0223
      7 C           9.4993   41.2897   10.0786 C.ar    1  UNL1        0.0542
      8 C           8.3233   41.3813    9.3238 C.ar    1  UNL1        0.0414
      9 C           7.2102   41.6240   10.1164 C.ar    1  UNL1        0.1526
     10 S           7.6606   41.6838   11.7338 S.2     1  UNL1       -0.0703
     11 O           4.6428   40.9904   10.4249 O.2     1  UNL1       -0.1523
     12 O           5.4873   41.2226    8.1393 O.2     1  UNL1       -0.1523
     13 S           5.5642   41.7786    9.5339 S.O2    1  UNL1        0.0690
     14 C           6.0130   44.1667    8.6359 C.3     1  UNL1        0.0959
     15 C           5.2187   44.7095    7.4675 C.3     1  UNL1        0.0206
     16 C           3.7911   44.6665    7.9288 C.3     1  UNL1        0.0206
     17 C           3.7701   43.5464    8.9380 C.3     1  UNL1        0.0959
     18 N           5.1017   43.4519    9.5269 N.3     1  UNL1       -0.1551
     19 C          12.5030   39.4939    8.4342 C.3     1  UNL1        0.1060
     20 C          12.7570   40.7573    7.5985 C.3     1  UNL1        0.1077
     21 C          14.7106   40.2411    8.7807 C.2     1  UNL1        0.2299
     22 C          13.7799   39.1855    9.2203 C.3     1  UNL1        0.0964
     23 N          14.1327   41.1477    7.8546 N.am    1  UNL1       -0.2581
     24 O          15.8970   40.3267    9.1936 O.2     1  UNL1       -0.2745
     25 C          14.7655   42.2929    7.2525 C.ar    1  UNL1        0.0547
     26 C          16.0531   42.6791    7.6581 C.ar    1  UNL1        0.0263
     27 C          16.6775   43.7887    7.0819 C.ar    1  UNL1        0.0589
     28 C          16.0208   44.5248    6.0931 C.ar    1  UNL1        0.0115
     29 C          14.7396   44.1510    5.6808 C.ar    1  UNL1        0.0021
     30 C          14.1159   43.0412    6.2578 C.ar    1  UNL1        0.0150
     31 CL         18.2827   44.2552    7.5995 Cl      1  UNL1       -0.0822
@<TRIPOS>BOND
     1     5     6    1
     2     6    10   ar
     3     7     2    1
     4     7     8   ar
     5    19     1    1
     6    19    20    1
     7    20    23    1
     8    22    21    1
     9    22    19    1
    10    26    27   ar
    11    27    31    1
    12    28    29   ar
    13    30    25   ar
    14     9    10   ar
    15    14    18    1
    16    14    15    1
    17    15    16    1
    18    16    17    1
    19    17    18    1
    20     2     1   am
    21    23    21   am
    22    23    25    1
    23    13     9    1
    24    13    18    1
    25     6     7   ar
    26     1     3    2
    27    21    24    2
    28    25    26   ar
    29    27    28   ar
    30    29    30   ar
    31     8     9   ar
    32    13    11    2
    33    13    12    2
    34     2     4    1
@<TRIPOS>MOLECULE
MolPort-010-691-620 ChemDiv-L497-0025 MCULE-6783665137 PubChem-50829217
 31 34 0 0 0
SMALL
GASTEIGER

@<TRIPOS>ATOM
      1 C          10.9257   39.5225    8.1727 C.2     1  UNL1        0.2278
      2 N          10.0929   40.5473    7.6228 N.am    1  UNL1       -0.2837
      3 O          10.4837   38.7404    9.0585 O.2     1  UNL1       -0.2747
      4 H          10.5376   41.2747    7.1306 H       1  UNL1        0.1549
      5 C           8.1044   39.6644    5.3851 C.3     1  UNL1        0.0395
      6 C           7.7704   40.1775    6.7426 C.ar    1  UNL1        0.0223
      7 C           8.6650   40.6027    7.7290 C.ar    1  UNL1        0.0542
      8 C           8.0434   41.1875    8.8393 C.ar    1  UNL1        0.0414
      9 C           6.6601   41.1846    8.7266 C.ar    1  UNL1        0.1526
     10 S           6.2064   40.5078    7.2574 S.2     1  UNL1       -0.0703
     11 O           6.1131   41.6690   11.2868 O.2     1  UNL1       -0.1523
     12 O           4.2414   41.1048    9.8139 O.2     1  UNL1       -0.1523
     13 S           5.5449   41.8481    9.9050 S.O2    1  UNL1        0.0690
     14 C           6.2976   43.9671    8.6189 C.3     1  UNL1        0.0959
     15 C           5.6034   44.3743    7.3371 C.3     1  UNL1        0.0206
     16 C           4.1697   44.5771    7.7321 C.3     1  UNL1        0.0206
     17 C           3.9899   43.6688    8.9222 C.3     1  UNL1        0.0959
     18 N           5.2855   43.5335    9.5795 N.3     1  UNL1       -0.1551
     19 C          12.3504   39.4328    7.7345 C.3     1  UNL1        0.1060
     20 C          12.7429   40.6668    6.9085 C.3     1  UNL1        0.1077
     21 C          14.1878   40.5087    8.7436 C.2     1  UNL1        0.2299
     22 C          13.2869   39.3588    8.9433 C.3     1  UNL1        0.0964
     23 N          13.8819   41.2653    7.5829 N.am    1  UNL1       -0.2581
     24 O          15.1296   40.7884    9.5311 O.2     1  UNL1       -0.2745
     25 C          14.5550   42.4511    7.1187 C.ar    1  UNL1        0.0547
     26 C          15.8771   42.7098    7.5145 C.ar    1  UNL1        0.0263
     27 C          16.5408   43.8570    7.0713 C.ar    1  UNL1        0.0589
     28 C          15.8893   44.7589    6.2270 C.ar    1  UNL1        0.0115
     29 C          14.5740   44.5131    5.8260 C.ar    1  UNL1        0.0021
     30 C          13.9110   43.3655    6.2699 C.ar    1  UNL1        0.0150
     31 CL         18.1887   44.1630    7.5745 Cl      1  UNL1       -0.0822
@<TRIPOS>BOND
     1     5     6    1
     2     6    10   ar
     3     7     2    1
     4     7     8   ar
     5    19     1    1
     6    19    20    1
     7    20    23    1
     8    22    21    1
     9    22    19    1
    10    26    27   ar
    11    27    31    1
    12    28    29   ar
    13    30    25   ar
    14     9    10   ar
    15    14    18    1
    16    14    15    1
    17    15    16    1
    18    16    17    1
    19    17    18    1
    20     2     1   am
    21    23    21   am
    22    23    25    1
    23    13     9    1
    24    13    18    1
    25     6     7   ar
    26     1     3    2
    27    21    24    2
    28    25    26   ar
    29    27    28   ar
    30    29    30   ar
    31     8     9   ar
    32    13    11    2
    33    13    12    2
    34     2     4    1
@<TRIPOS>MOLECULE
MolPort-010-691-620 ChemDiv-L497-0025 MCULE-6783665137 PubChem-50829217
 31 34 0 0 0
SMALL
GASTEIGER

@<TRIPOS>ATOM
      1 C          11.3142   40.9749    8.2026 C.2     1  UNL1        0.2278
      2 N          12.3789   40.0238    8.2910 N.am    1  UNL1       -0.2837
      3 O          11.4375   42.1271    8.7014 O.2     1  UNL1       -0.2747
      4 H          12.1576   39.0807    8.1156 H       1  UNL1        0.1549
      5 C          14.0402   38.6147   10.5262 C.3     1  UNL1        0.0395
      6 C          14.4993   39.6791    9.5913 C.ar    1  UNL1        0.0223
      7 C          13.7410   40.3300    8.6139 C.ar    1  UNL1        0.0542
      8 C          14.4063   41.4014    8.0052 C.ar    1  UNL1        0.0414
      9 C          15.6971   41.5594    8.4900 C.ar    1  UNL1        0.1526
     10 S          16.0036   40.4196    9.6855 S.2     1  UNL1       -0.0703
     11 O          17.8422   42.2063    7.0517 O.2     1  UNL1       -0.1523
     12 O          17.5326   43.3388    9.1994 O.2     1  UNL1       -0.1523
     13 S          16.8249   42.8032    7.9862 S.O2    1  UNL1        0.0690
     14 C          16.4812   44.1981    5.8305 C.3     1  UNL1        0.0959
     15 C          15.3696   43.8543    4.8626 C.3     1  UNL1        0.0206
     16 C          14.1126   43.9697    5.6747 C.3     1  UNL1        0.0206
     17 C          14.5652   43.6863    7.0848 C.3     1  UNL1        0.0959
     18 N          15.9645   44.0852    7.1927 N.3     1  UNL1       -0.1551
     19 C          10.0249   40.5637    7.5713 C.3     1  UNL1        0.1060
     20 C           8.8528   40.7808    8.5399 C.3     1  UNL1        0.1077
     21 C           8.4381   41.9988    6.5842 C.2     1  UNL1        0.2299
     22 C           9.7510   41.3867    6.3098 C.3     1  UNL1        0.0964
     23 N           7.9175   41.6602    7.8600 N.am    1  UNL1       -0.2581
     24 O           7.8457   42.7500    5.7655 O.2     1  UNL1       -0.2745
     25 C           6.6746   42.1060    8.4354 C.ar    1  UNL1        0.0547
     26 C           6.0195   43.2309    7.9090 C.ar    1  UNL1        0.0263
     27 C           4.8133   43.6736    8.4588 C.ar    1  UNL1        0.0589
     28 C           4.2486   42.9959    9.5417 C.ar    1  UNL1        0.0115
     29 C           4.8904   41.8755   10.0746 C.ar    1  UNL1        0.0021
     30 C           6.0968   41.4336    9.5241 C.ar    1  UNL1        0.0150
     31 CL          4.0106   45.0772    7.7896 Cl      1  UNL1       -0.0822
@<TRIPOS>BOND
     1     5     6    1
     2     6    10   ar
     3     7     2    1
     4     7     8   ar
     5    19     1    1
     6    19    20    1
     7    20    23    1
     8    22    21    1
     9    22    19    1
    10    26    27   ar
    11    27    31    1
    12    28    29   ar
    13    30    25   ar
    14     9    10   ar
    15    14    18    1
    16    14    15    1
    17    15    16    1
    18    16    17    1
    19    17    18    1
    20     2     1   am
    21    23    21   am
    22    23    25    1
    23    13     9    1
    24    13    18    1
    25     6     7   ar
    26     1     3    2
    27    21    24    2
    28    25    26   ar
    29    27    28   ar
    30    29    30   ar
    31     8     9   ar
    32    13    11    2
    33    13    12    2
    34     2     4    1
@<TRIPOS>MOLECULE
MolPort-010-691-620 ChemDiv-L497-0025 MCULE-6783665137 PubChem-50829217
 31 34 0 0 0
SMALL
GASTEIGER

@<TRIPOS>ATOM
      1 C          11.6703   39.5498    9.3493 C.2     1  UNL1        0.2278
      2 N          11.2303   40.8982    9.5342 N.am    1  UNL1       -0.2837
      3 O          11.0184   38.5872    9.8394 O.2     1  UNL1       -0.2747
      4 H          11.8820   41.6142    9.3557 H       1  UNL1        0.1549
      5 C          10.3335   41.1963   12.5087 C.3     1  UNL1        0.0395
      6 C           9.5230   41.4602   11.2877 C.ar    1  UNL1        0.0223
      7 C           9.9196   41.2932    9.9577 C.ar    1  UNL1        0.0542
      8 C           8.8811   41.4648    9.0340 C.ar    1  UNL1        0.0414
      9 C           7.6830   41.7990    9.6497 C.ar    1  UNL1        0.1526
     10 S           7.8878   41.8420   11.3166 S.2     1  UNL1       -0.0703
     11 O           5.7062   40.7897    8.1793 O.2     1  UNL1       -0.1523
     12 O           6.3629   43.1097    7.7581 O.2     1  UNL1       -0.1523
     13 S           6.1600   42.0707    8.8254 S.O2    1  UNL1        0.0690
     14 C           3.6791   42.6620    9.2796 C.3     1  UNL1        0.0959
     15 C           2.7560   41.6538    9.9291 C.3     1  UNL1        0.0206
     16 C           3.3943   41.3563   11.2546 C.3     1  UNL1        0.0206
     17 C           4.8603   41.6171   11.0172 C.3     1  UNL1        0.0959
     18 N           4.9698   42.6203    9.9634 N.3     1  UNL1       -0.1551
     19 C          12.9519   39.2978    8.6255 C.3     1  UNL1        0.1060
     20 C          13.4674   40.5875    7.9697 C.3     1  UNL1        0.1077
     21 C          15.1173   39.7786    9.4202 C.2     1  UNL1        0.2299
     22 C          14.0306   38.7968    9.5894 C.3     1  UNL1        0.0964
     23 N          14.8027   40.8094    8.4973 N.am    1  UNL1       -0.2581
     24 O          16.2112   39.7064   10.0398 O.2     1  UNL1       -0.2745
     25 C          15.6356   41.9240    8.1253 C.ar    1  UNL1        0.0547
     26 C          15.1395   42.9161    7.2644 C.ar    1  UNL1        0.0263
     27 C          15.9380   44.0022    6.8957 C.ar    1  UNL1        0.0589
     28 C          17.2422   44.1082    7.3841 C.ar    1  UNL1        0.0115
     29 C          17.7477   43.1279    8.2412 C.ar    1  UNL1        0.0021
     30 C          16.9483   42.0420    8.6093 C.ar    1  UNL1        0.0150
     31 CL         15.3029   45.2295    5.8221 Cl      1  UNL1       -0.0822
@<TRIPOS>BOND
     1     5     6    1
     2     6    10   ar
     3     7     2    1
     4     7     8   ar
     5    19     1    1
     6    19    20    1
     7    20    23    1
     8    22    21    1
     9    22    19    1
    10    26    27   ar
    11    27    31    1
    12    28    29   ar
    13    30    25   ar
    14     9    10   ar
    15    14    18    1
    16    14    15    1
    17    15    16    1
    18    16    17    1
    19    17    18    1
    20     2     1   am
    21    23    21   am
    22    23    25    1
    23    13     9    1
    24    13    18    1
    25     6     7   ar
    26     1     3    2
    27    21    24    2
    28    25    26   ar
    29    27    28   ar
    30    29    30   ar
    31     8     9   ar
    32    13    11    2
    33    13    12    2
    34     2     4    1
@<TRIPOS>MOLECULE
MolPort-010-691-620 ChemDiv-L497-0025 MCULE-6783665137 PubChem-50829217
 31 34 0 0 0
SMALL
GASTEIGER

@<TRIPOS>ATOM
      1 C          11.5457   39.3479    8.6670 C.2     1  UNL1        0.2278
      2 N          10.7972   40.2989    7.9046 N.am    1  UNL1       -0.2837
      3 O          11.0257   38.7651    9.6579 O.2     1  UNL1       -0.2747
      4 H          11.3028   40.8995    7.3104 H       1  UNL1        0.1549
      5 C           8.8637   39.4054    5.6232 C.3     1  UNL1        0.0395
      6 C           8.4999   40.0212    6.9294 C.ar    1  UNL1        0.0223
      7 C           9.3726   40.4498    7.9338 C.ar    1  UNL1        0.0542
      8 C           8.7386   41.1398    8.9745 C.ar    1  UNL1        0.0414
      9 C           7.3650   41.2164    8.7913 C.ar    1  UNL1        0.1526
     10 S           6.9382   40.4798    7.3430 S.2     1  UNL1       -0.0703
     11 O           5.8129   43.3278    9.2616 O.2     1  UNL1       -0.1523
     12 O           6.9313   42.2929   11.1770 O.2     1  UNL1       -0.1523
     13 S           6.2409   42.0198    9.8700 S.O2    1  UNL1        0.0690
     14 C           4.2513   41.3933   11.4062 C.3     1  UNL1        0.0959
     15 C           2.8673   41.9409   11.1319 C.3     1  UNL1        0.0206
     16 C           2.5358   41.4552    9.7510 C.3     1  UNL1        0.0206
     17 C           3.8819   41.2936    9.0910 C.3     1  UNL1        0.0959
     18 N           4.8586   41.0037   10.1355 N.3     1  UNL1       -0.1551
     19 C          12.9767   39.1029    8.3175 C.3     1  UNL1        0.1060
     20 C          13.5938   40.3440    7.6557 C.3     1  UNL1        0.1077
     21 C          14.8528   39.8095    9.5555 C.2     1  UNL1        0.2299
     22 C          13.7949   38.7827    9.5712 C.3     1  UNL1        0.0964
     23 N          14.7439   40.7098    8.4643 N.am    1  UNL1       -0.2581
     24 O          15.7569   39.8777   10.4293 O.2     1  UNL1       -0.2745
     25 C          15.6027   41.8293    8.1750 C.ar    1  UNL1        0.0547
     26 C          15.1692   42.8414    7.3036 C.ar    1  UNL1        0.0263
     27 C          15.9933   43.9325    7.0145 C.ar    1  UNL1        0.0589
     28 C          17.2609   44.0235    7.5939 C.ar    1  UNL1        0.0115
     29 C          17.7040   43.0232    8.4625 C.ar    1  UNL1        0.0021
     30 C          16.8790   41.9323    8.7509 C.ar    1  UNL1        0.0150
     31 CL         15.4363   45.1847    5.9265 Cl      1  UNL1       -0.0822
@<TRIPOS>BOND
     1     5     6    1
     2     6    10   ar
     3     7     2    1
     4     7     8   ar
     5    19     1    1
     6    19    20    1
     7    20    23    1
     8    22    21    1
     9    22    19    1
    10    26    27   ar
    11    27    31    1
    12    28    29   ar
    13    30    25   ar
    14     9    10   ar
    15    14    18    1
    16    14    15    1
    17    15    16    1
    18    16    17    1
    19    17    18    1
    20     2     1   am
    21    23    21   am
    22    23    25    1
    23    13     9    1
    24    13    18    1
    25     6     7   ar
    26     1     3    2
    27    21    24    2
    28    25    26   ar
    29    27    28   ar
    30    29    30   ar
    31     8     9   ar
    32    13    11    2
    33    13    12    2
    34     2     4    1
@<TRIPOS>MOLECULE
MolPort-010-691-620 ChemDiv-L497-0025 MCULE-6783665137 PubChem-50829217
 31 34 0 0 0
SMALL
GASTEIGER

@<TRIPOS>ATOM
      1 C          11.7523   39.4455    9.4526 C.2     1  UNL1        0.2278
      2 N          11.2869   40.7952    9.5394 N.am    1  UNL1       -0.2837
      3 O          11.0747   38.4986    9.9385 O.2     1  UNL1       -0.2747
      4 H          11.9433   41.5105    9.3759 H       1  UNL1        0.1549
      5 C          10.1675   41.2239   12.4212 C.3     1  UNL1        0.0395
      6 C           9.4479   41.4180   11.1319 C.ar    1  UNL1        0.0223
      7 C           9.9444   41.1925    9.8448 C.ar    1  UNL1        0.0542
      8 C           8.9762   41.3057    8.8394 C.ar    1  UNL1        0.0414
      9 C           7.7322   41.6530    9.3474 C.ar    1  UNL1        0.1526
     10 S           7.8115   41.7788   11.0208 S.2     1  UNL1       -0.0703
     11 O           5.8152   43.2945    8.4994 O.2     1  UNL1       -0.1523
     12 O           5.1990   40.9698    8.9543 O.2     1  UNL1       -0.1523
     13 S           6.2725   41.8644    8.4002 S.O2    1  UNL1        0.0690
     14 C           7.8583   42.0598    6.3610 C.3     1  UNL1        0.0959
     15 C           8.8466   40.9570    6.0485 C.3     1  UNL1        0.0206
     16 C           7.9975   39.7372    5.8390 C.3     1  UNL1        0.0206
     17 C           6.7675   40.0051    6.6690 C.3     1  UNL1        0.0959
     18 N           6.5862   41.4509    6.7435 N.3     1  UNL1       -0.1551
     19 C          13.0869   39.1765    8.8392 C.3     1  UNL1        0.1060
     20 C          13.5968   40.4135    8.0850 C.3     1  UNL1        0.1077
     21 C          15.1766   39.8289    9.7106 C.2     1  UNL1        0.2299
     22 C          14.1177   38.8235    9.9146 C.3     1  UNL1        0.0964
     23 N          14.8856   40.7456    8.6673 N.am    1  UNL1       -0.2581
     24 O          16.2294   39.8676   10.4003 O.2     1  UNL1       -0.2745
     25 C          15.6997   41.8513    8.2326 C.ar    1  UNL1        0.0547
     26 C          15.1686   42.8159    7.3614 C.ar    1  UNL1        0.0263
     27 C          15.9485   43.8931    6.9320 C.ar    1  UNL1        0.0589
     28 C          17.2692   44.0177    7.3693 C.ar    1  UNL1        0.0115
     29 C          17.8095   43.0648    8.2361 C.ar    1  UNL1        0.0021
     30 C          17.0286   41.9877    8.6649 C.ar    1  UNL1        0.0150
     31 CL         15.2697   45.0860    5.8464 Cl      1  UNL1       -0.0822
@<TRIPOS>BOND
     1     5     6    1
     2     6    10   ar
     3     7     2    1
     4     7     8   ar
     5    19     1    1
     6    19    20    1
     7    20    23    1
     8    22    21    1
     9    22    19    1
    10    26    27   ar
    11    27    31    1
    12    28    29   ar
    13    30    25   ar
    14     9    10   ar
    15    14    18    1
    16    14    15    1
    17    15    16    1
    18    16    17    1
    19    17    18    1
    20     2     1   am
    21    23    21   am
    22    23    25    1
    23    13     9    1
    24    13    18    1
    25     6     7   ar
    26     1     3    2
    27    21    24    2
    28    25    26   ar
    29    27    28   ar
    30    29    30   ar
    31     8     9   ar
    32    13    11    2
    33    13    12    2
    34     2     4    1
@<TRIPOS>MOLECULE
MolPort-010-691-620 ChemDiv-L497-0025 MCULE-6783665137 PubChem-50829217
 31 34 0 0 0
SMALL
GASTEIGER

@<TRIPOS>ATOM
      1 C          11.0303   39.0590    7.8862 C.2     1  UNL1        0.2278
      2 N          11.0137   37.9751    8.8193 N.am    1  UNL1       -0.2837
      3 O          12.0184   39.8412    7.8260 O.2     1  UNL1       -0.2747
      4 H          10.1444   37.5513    9.0036 H       1  UNL1        0.1549
      5 C          10.9239   35.7082   10.9628 C.3     1  UNL1        0.0395
      6 C          12.1264   36.4173   10.4444 C.ar    1  UNL1        0.0223
      7 C          12.1574   37.4549    9.5082 C.ar    1  UNL1        0.0542
      8 C          13.4240   38.0299    9.3459 C.ar    1  UNL1        0.0414
      9 C          14.3842   37.4125   10.1353 C.ar    1  UNL1        0.1526
     10 S          13.6753   36.1988   11.0555 S.2     1  UNL1       -0.0703
     11 O          16.7593   37.4861    8.9347 O.2     1  UNL1       -0.1523
     12 O          16.7225   37.1277   11.3557 O.2     1  UNL1       -0.1523
     13 S          16.0747   37.8681   10.2190 S.O2    1  UNL1        0.0690
     14 C          17.5948   39.9658   10.2390 C.3     1  UNL1        0.0959
     15 C          17.6367   40.8949    9.0450 C.3     1  UNL1        0.0206
     16 C          16.2218   41.3699    8.8862 C.3     1  UNL1        0.0206
     17 C          15.3965   40.2506    9.4690 C.3     1  UNL1        0.0959
     18 N          16.2063   39.5793   10.4801 N.3     1  UNL1       -0.1551
     19 C           9.8310   39.2964    7.0287 C.3     1  UNL1        0.1060
     20 C           8.6786   39.8825    7.8578 C.3     1  UNL1        0.1077
     21 C           9.1641   41.3604    6.1084 C.2     1  UNL1        0.2299
     22 C          10.1533   40.2861    5.9060 C.3     1  UNL1        0.0964
     23 N           8.3175   41.1396    7.2255 N.am    1  UNL1       -0.2581
     24 O           9.0870   42.3726    5.3634 O.2     1  UNL1       -0.2745
     25 C           7.2676   42.0029    7.7016 C.ar    1  UNL1        0.0547
     26 C           6.5527   41.6665    8.8624 C.ar    1  UNL1        0.0263
     27 C           5.5314   42.4956    9.3343 C.ar    1  UNL1        0.0589
     28 C           5.2135   43.6711    8.6502 C.ar    1  UNL1        0.0115
     29 C           5.9171   44.0171    7.4942 C.ar    1  UNL1        0.0021
     30 C           6.9383   43.1871    7.0230 C.ar    1  UNL1        0.0150
     31 CL          4.6512   42.0606   10.7829 Cl      1  UNL1       -0.0822
@<TRIPOS>BOND
     1     5     6    1
     2     6    10   ar
     3     7     2    1
     4     7     8   ar
     5    19     1    1
     6    19    20    1
     7    20    23    1
     8    22    21    1
     9    22    19    1
    10    26    27   ar
    11    27    31    1
    12    28    29   ar
    13    30    25   ar
    14     9    10   ar
    15    14    18    1
    16    14    15    1
    17    15    16    1
    18    16    17    1
    19    17    18    1
    20     2     1   am
    21    23    21   am
    22    23    25    1
    23    13     9    1
    24    13    18    1
    25     6     7   ar
    26     1     3    2
    27    21    24    2
    28    25    26   ar
    29    27    28   ar
    30    29    30   ar
    31     8     9   ar
    32    13    11    2
    33    13    12    2
    34     2     4    1
