@<TRIPOS>MOLECULE
MolPort-016-720-375 MCULE-9130697247 PubChem-46977361
 28 30 0 0 0
SMALL
GASTEIGER

@<TRIPOS>ATOM
      1 C          11.3133   41.4686    6.6921 C.2     1  UNL1        0.2284
      2 O          11.3520   41.5709    7.9463 O.2     1  UNL1       -0.2747
      3 N          12.4279   41.8653    5.8812 N.am    1  UNL1       -0.2641
      4 H          12.3286   41.7566    4.9077 H       1  UNL1        0.1567
      5 C          16.6023   41.9966    8.3545 C.ar    1  UNL1        0.1566
      6 C          15.5882   42.4349    7.4973 C.ar    1  UNL1        0.1230
      7 C          15.6774   43.6734    6.8789 C.ar    1  UNL1        0.0527
      8 C          16.7594   44.5264    7.0744 C.ar    1  UNL1        0.0083
      9 C          17.7853   44.0993    7.9303 C.ar    1  UNL1        0.0037
     10 C          17.7096   42.8453    8.5653 C.ar    1  UNL1        0.0385
     11 C          13.6713   42.4038    6.3463 C.ar    1  UNL1        0.1656
     12 S          14.3214   43.9141    5.9221 S.2     1  UNL1       -0.0513
     13 N          14.4698   41.7227    7.2027 N.ar    1  UNL1       -0.2209
     14 O          16.5026   40.7425    8.9701 O.3     1  UNL1       -0.4739
     15 C          15.4710   39.4110   10.7005 C.3     1  UNL1        0.0512
     16 C          15.2695   40.1825    9.4091 C.3     1  UNL1        0.2056
     17 C          10.0823   40.9241    6.0494 C.3     1  UNL1        0.0928
     18 C           8.8382   41.5422    6.6714 C.3     1  UNL1        0.0119
     19 C           7.6004   40.9534    6.0153 C.3     1  UNL1        0.0179
     20 C           7.6106   39.4292    6.1655 C.3     1  UNL1        0.0725
     21 C          10.0377   39.3970    6.1848 C.3     1  UNL1        0.0816
     22 N           8.8217   38.8142    5.6000 N.3     1  UNL1       -0.2646
     23 C           8.8426   38.9774    4.1465 C.3     1  UNL1        0.1582
     24 C           9.8575   38.0810    3.5075 C.2     1  UNL1        0.2357
     25 O           9.5566   36.9129    3.1432 O.2     1  UNL1       -0.2738
     26 N          11.1830   38.5578    3.3123 N.am    1  UNL1       -0.3277
     27 H          11.4248   39.4694    3.5946 H       1  UNL1        0.1450
     28 H          11.8588   37.9762    2.8948 H       1  UNL1        0.1450
@<TRIPOS>BOND
     1    15    16    1
     2    16    14    1
     3     5    14    1
     4     6     7   ar
     5     6    13   ar
     6     7    12   ar
     7     8     9   ar
     8    10     5   ar
     9    11    12   ar
    10    11     3    1
    11    17     1    1
    12    17    18    1
    13    18    19    1
    14    19    20    1
    15    20    22    1
    16    21    22    1
    17    21    17    1
    18    23    22    1
    19    23    24    1
    20    24    26   am
    21     3     1   am
    22     5     6   ar
    23     7     8   ar
    24     9    10   ar
    25    11    13   ar
    26     1     2    2
    27    24    25    2
    28     3     4    1
    29    26    27    1
    30    26    28    1
@<TRIPOS>MOLECULE
MolPort-016-720-375 MCULE-9130697247 PubChem-46977361
 28 30 0 0 0
SMALL
GASTEIGER

@<TRIPOS>ATOM
      1 C          10.9625   42.1581    7.5901 C.2     1  UNL1        0.2284
      2 O          11.2224   42.4647    8.7831 O.2     1  UNL1       -0.2747
      3 N          11.9773   42.1954    6.5770 N.am    1  UNL1       -0.2641
      4 H          11.7034   41.9421    5.6660 H       1  UNL1        0.1567
      5 C          16.4860   41.9278    8.3547 C.ar    1  UNL1        0.1566
      6 C          15.4181   42.4152    7.5947 C.ar    1  UNL1        0.1230
      7 C          15.5871   43.5197    6.7728 C.ar    1  UNL1        0.0527
      8 C          16.8038   44.1862    6.6630 C.ar    1  UNL1        0.0083
      9 C          17.8847   43.7075    7.4180 C.ar    1  UNL1        0.0037
     10 C          17.7293   42.5877    8.2567 C.ar    1  UNL1        0.0385
     11 C          13.3495   42.5644    6.7587 C.ar    1  UNL1        0.1656
     12 S          14.1393   43.8614    5.9987 S.2     1  UNL1       -0.0513
     13 N          14.1704   41.8785    7.5899 N.ar    1  UNL1       -0.2209
     14 O          16.3038   40.8094    9.1779 O.3     1  UNL1       -0.4739
     15 C          14.6767   39.6453   10.5301 C.3     1  UNL1        0.0512
     16 C          15.1475   39.9805    9.1267 C.3     1  UNL1        0.2056
     17 C           9.5721   41.7507    7.2354 C.3     1  UNL1        0.0928
     18 C           8.5591   42.5789    8.0129 C.3     1  UNL1        0.0119
     19 C           7.1539   42.1278    7.6505 C.3     1  UNL1        0.0179
     20 C           7.0009   40.6312    7.9377 C.3     1  UNL1        0.0725
     21 C           9.3625   40.2579    7.5183 C.3     1  UNL1        0.0816
     22 N           7.9931   39.8144    7.2213 N.3     1  UNL1       -0.2646
     23 C           7.7538   39.8741    5.7793 C.3     1  UNL1        0.1582
     24 C           8.8956   39.2881    5.0083 C.2     1  UNL1        0.2357
     25 O           9.3160   39.8328    3.9527 O.2     1  UNL1       -0.2738
     26 N           9.5123   38.0951    5.4761 N.am    1  UNL1       -0.3277
     27 H           9.1889   37.6642    6.3001 H       1  UNL1        0.1450
     28 H          10.2627   37.7000    4.9759 H       1  UNL1        0.1450
@<TRIPOS>BOND
     1    15    16    1
     2    16    14    1
     3     5    14    1
     4     6     7   ar
     5     6    13   ar
     6     7    12   ar
     7     8     9   ar
     8    10     5   ar
     9    11    12   ar
    10    11     3    1
    11    17     1    1
    12    17    18    1
    13    18    19    1
    14    19    20    1
    15    20    22    1
    16    21    22    1
    17    21    17    1
    18    23    22    1
    19    23    24    1
    20    24    26   am
    21     3     1   am
    22     5     6   ar
    23     7     8   ar
    24     9    10   ar
    25    11    13   ar
    26     1     2    2
    27    24    25    2
    28     3     4    1
    29    26    27    1
    30    26    28    1
@<TRIPOS>MOLECULE
MolPort-016-720-375 MCULE-9130697247 PubChem-46977361
 28 30 0 0 0
SMALL
GASTEIGER

@<TRIPOS>ATOM
      1 C          11.3254   41.7541    7.6356 C.2     1  UNL1        0.2284
      2 O          11.5199   42.2772    8.7641 O.2     1  UNL1       -0.2747
      3 N          12.3457   41.7652    6.6275 N.am    1  UNL1       -0.2641
      4 H          12.1250   41.3369    5.7690 H       1  UNL1        0.1567
      5 C          16.9158   42.1980    8.2046 C.ar    1  UNL1        0.1566
      6 C          15.7554   42.5100    7.4895 C.ar    1  UNL1        0.1230
      7 C          15.7217   43.6161    6.6529 C.ar    1  UNL1        0.0527
      8 C          16.8191   44.4550    6.4843 C.ar    1  UNL1        0.0083
      9 C          17.9908   44.1534    7.1939 C.ar    1  UNL1        0.0037
     10 C          18.0409   43.0346    8.0467 C.ar    1  UNL1        0.0385
     11 C          13.6538   42.3373    6.7453 C.ar    1  UNL1        0.1656
     12 S          14.2072   43.7272    5.9416 S.2     1  UNL1       -0.0513
     13 N          14.6030   41.7932    7.5440 N.ar    1  UNL1       -0.2209
     14 O          16.9386   41.0764    9.0432 O.3     1  UNL1       -0.4739
     15 C          16.1126   39.3484   10.5139 C.3     1  UNL1        0.0512
     16 C          15.7634   40.3993    9.4760 C.3     1  UNL1        0.2056
     17 C          10.0077   41.1146    7.3533 C.3     1  UNL1        0.0928
     18 C          10.0553   39.6287    7.6800 C.3     1  UNL1        0.0119
     19 C           8.7096   38.9987    7.3614 C.3     1  UNL1        0.0179
     20 C           8.3588   39.2439    5.8908 C.3     1  UNL1        0.0725
     21 C           9.6159   41.3203    5.8847 C.3     1  UNL1        0.0816
     22 N           8.3403   40.6740    5.5455 N.3     1  UNL1       -0.2646
     23 C           7.2423   41.3490    6.2374 C.3     1  UNL1        0.1582
     24 C           6.1212   40.4043    6.5414 C.2     1  UNL1        0.2357
     25 O           5.8135   39.4805    5.7416 O.2     1  UNL1       -0.2738
     26 N           5.3915   40.5563    7.7525 N.am    1  UNL1       -0.3277
     27 H           5.6267   41.2759    8.3819 H       1  UNL1        0.1450
     28 H           4.6513   39.9419    7.9616 H       1  UNL1        0.1450
@<TRIPOS>BOND
     1    15    16    1
     2    16    14    1
     3     5    14    1
     4     6     7   ar
     5     6    13   ar
     6     7    12   ar
     7     8     9   ar
     8    10     5   ar
     9    11    12   ar
    10    11     3    1
    11    17     1    1
    12    17    18    1
    13    18    19    1
    14    19    20    1
    15    20    22    1
    16    21    22    1
    17    21    17    1
    18    23    22    1
    19    23    24    1
    20    24    26   am
    21     3     1   am
    22     5     6   ar
    23     7     8   ar
    24     9    10   ar
    25    11    13   ar
    26     1     2    2
    27    24    25    2
    28     3     4    1
    29    26    27    1
    30    26    28    1
@<TRIPOS>MOLECULE
MolPort-016-720-375 MCULE-9130697247 PubChem-46977361
 28 30 0 0 0
SMALL
GASTEIGER

@<TRIPOS>ATOM
      1 C          10.9252   41.9196    7.9692 C.2     1  UNL1        0.2284
      2 O          11.1511   42.6211    8.9899 O.2     1  UNL1       -0.2747
      3 N          11.9394   41.7048    6.9779 N.am    1  UNL1       -0.2641
      4 H          11.6934   41.1449    6.2064 H       1  UNL1        0.1567
      5 C          16.6127   41.9851    8.2593 C.ar    1  UNL1        0.1566
      6 C          15.4237   42.3268    7.6074 C.ar    1  UNL1        0.1230
      7 C          15.3832   43.4101    6.7420 C.ar    1  UNL1        0.0527
      8 C          16.5013   44.1966    6.4817 C.ar    1  UNL1        0.0083
      9 C          17.7017   43.8647    7.1271 C.ar    1  UNL1        0.0037
     10 C          17.7590   42.7684    8.0081 C.ar    1  UNL1        0.0385
     11 C          13.2745   42.2237    6.9985 C.ar    1  UNL1        0.1656
     12 S          13.8331   43.5663    6.1215 S.2     1  UNL1       -0.0513
     13 N          14.2486   41.6615    7.7535 N.ar    1  UNL1       -0.2209
     14 O          16.6418   40.8867    9.1279 O.3     1  UNL1       -0.4739
     15 C          15.8281   39.1958   10.6476 C.3     1  UNL1        0.0512
     16 C          15.4699   40.2234    9.5897 C.3     1  UNL1        0.2056
     17 C           9.5763   41.3063    7.7983 C.3     1  UNL1        0.0928
     18 C           9.5936   40.2865    6.6685 C.3     1  UNL1        0.0119
     19 C           8.2036   39.6954    6.5010 C.3     1  UNL1        0.0179
     20 C           7.1934   40.8159    6.2366 C.3     1  UNL1        0.0725
     21 C           8.5271   42.3891    7.5167 C.3     1  UNL1        0.0816
     22 N           7.1845   41.8311    7.3015 N.3     1  UNL1       -0.2646
     23 C           6.6810   41.2546    8.5482 C.3     1  UNL1        0.1582
     24 C           5.3169   41.7739    8.8820 C.2     1  UNL1        0.2357
     25 O           5.1564   42.9401    9.3313 O.2     1  UNL1       -0.2738
     26 N           4.1857   40.9337    8.6902 N.am    1  UNL1       -0.3277
     27 H           4.3040   40.0214    8.3394 H       1  UNL1        0.1450
     28 H           3.2844   41.2643    8.9081 H       1  UNL1        0.1450
@<TRIPOS>BOND
     1    15    16    1
     2    16    14    1
     3     5    14    1
     4     6     7   ar
     5     6    13   ar
     6     7    12   ar
     7     8     9   ar
     8    10     5   ar
     9    11    12   ar
    10    11     3    1
    11    17     1    1
    12    17    18    1
    13    18    19    1
    14    19    20    1
    15    20    22    1
    16    21    22    1
    17    21    17    1
    18    23    22    1
    19    23    24    1
    20    24    26   am
    21     3     1   am
    22     5     6   ar
    23     7     8   ar
    24     9    10   ar
    25    11    13   ar
    26     1     2    2
    27    24    25    2
    28     3     4    1
    29    26    27    1
    30    26    28    1
@<TRIPOS>MOLECULE
MolPort-016-720-375 MCULE-9130697247 PubChem-46977361
 28 30 0 0 0
SMALL
GASTEIGER

@<TRIPOS>ATOM
      1 C          13.3825   41.5700    7.9011 C.2     1  UNL1        0.2284
      2 O          12.1240   41.6023    7.8936 O.2     1  UNL1       -0.2747
      3 N          14.0921   40.4374    8.4218 N.am    1  UNL1       -0.2641
      4 H          15.0753   40.4799    8.3951 H       1  UNL1        0.1567
      5 C          13.8430   35.7712    9.7351 C.ar    1  UNL1        0.1566
      6 C          13.4279   37.0964    9.5707 C.ar    1  UNL1        0.1230
      7 C          12.1728   37.4983   10.0036 C.ar    1  UNL1        0.0527
      8 C          11.2800   36.6218   10.6127 C.ar    1  UNL1        0.0083
      9 C          11.6833   35.2896   10.7861 C.ar    1  UNL1        0.0037
     10 C          12.9537   34.8662   10.3523 C.ar    1  UNL1        0.0385
     11 C          13.5128   39.2505    8.9767 C.ar    1  UNL1        0.1656
     12 S          11.9671   39.1287    9.6694 S.2     1  UNL1       -0.0513
     13 N          14.1794   38.0714    8.9969 N.ar    1  UNL1       -0.2209
     14 O          15.1141   35.3784    9.2973 O.3     1  UNL1       -0.4739
     15 C          17.0391   35.7761    7.8948 C.3     1  UNL1        0.0512
     16 C          15.5479   35.4985    7.9467 C.3     1  UNL1        0.2056
     17 C          14.1383   42.7350    7.3566 C.3     1  UNL1        0.0928
     18 C          13.4247   43.3132    6.1427 C.3     1  UNL1        0.0119
     19 C          14.2270   44.4819    5.5951 C.3     1  UNL1        0.0179
     20 C          15.6457   44.0190    5.2503 C.3     1  UNL1        0.0725
     21 C          15.5663   42.3196    6.9817 C.3     1  UNL1        0.0816
     22 N          16.3419   43.4257    6.4027 N.3     1  UNL1       -0.2646
     23 C          16.5928   44.4435    7.4231 C.3     1  UNL1        0.1582
     24 C          17.4080   43.8979    8.5543 C.2     1  UNL1        0.2357
     25 O          17.3128   44.3773    9.7156 O.2     1  UNL1       -0.2738
     26 N          18.3059   42.8224    8.3102 N.am    1  UNL1       -0.3277
     27 H          18.3852   42.4432    7.4052 H       1  UNL1        0.1450
     28 H          18.8481   42.4572    9.0463 H       1  UNL1        0.1450
@<TRIPOS>BOND
     1    15    16    1
     2    16    14    1
     3     5    14    1
     4     6     7   ar
     5     6    13   ar
     6     7    12   ar
     7     8     9   ar
     8    10     5   ar
     9    11    12   ar
    10    11     3    1
    11    17     1    1
    12    17    18    1
    13    18    19    1
    14    19    20    1
    15    20    22    1
    16    21    22    1
    17    21    17    1
    18    23    22    1
    19    23    24    1
    20    24    26   am
    21     3     1   am
    22     5     6   ar
    23     7     8   ar
    24     9    10   ar
    25    11    13   ar
    26     1     2    2
    27    24    25    2
    28     3     4    1
    29    26    27    1
    30    26    28    1
@<TRIPOS>MOLECULE
MolPort-016-720-375 MCULE-9130697247 PubChem-46977361
 28 30 0 0 0
SMALL
GASTEIGER

@<TRIPOS>ATOM
      1 C          10.2769   42.2793    9.6282 C.2     1  UNL1        0.2284
      2 O          10.5688   42.8120   10.7309 O.2     1  UNL1       -0.2747
      3 N          11.0725   41.2170    9.0843 N.am    1  UNL1       -0.2641
      4 H          10.7852   40.8467    8.2185 H       1  UNL1        0.1567
      5 C          15.7952   40.2266    9.6101 C.ar    1  UNL1        0.1566
      6 C          14.4257   40.2030    9.8917 C.ar    1  UNL1        0.1230
      7 C          13.9439   39.4861   10.9772 C.ar    1  UNL1        0.0527
      8 C          14.7815   38.7687   11.8259 C.ar    1  UNL1        0.0083
      9 C          16.1581   38.7847   11.5569 C.ar    1  UNL1        0.0037
     10 C          16.6625   39.5073   10.4593 C.ar    1  UNL1        0.0385
     11 C          12.2436   40.6409    9.6753 C.ar    1  UNL1        0.1656
     12 S          12.2765   39.6479   11.0524 S.2     1  UNL1       -0.0513
     13 N          13.4798   40.8493    9.1621 N.ar    1  UNL1       -0.2209
     14 O          16.2698   40.9572    8.5134 O.3     1  UNL1       -0.4739
     15 C          16.5540   43.1759    7.6036 C.3     1  UNL1        0.0512
     16 C          17.0109   42.1661    8.6405 C.3     1  UNL1        0.2056
     17 C           9.0811   42.7693    8.8833 C.3     1  UNL1        0.0928
     18 C           8.5966   44.0907    9.4628 C.3     1  UNL1        0.0119
     19 C           7.3656   44.5543    8.7016 C.3     1  UNL1        0.0179
     20 C           6.2802   43.4758    8.7673 C.3     1  UNL1        0.0725
     21 C           7.9563   41.7276    8.9307 C.3     1  UNL1        0.0816
     22 N           6.7391   42.1801    8.2424 N.3     1  UNL1       -0.2646
     23 C           6.9883   42.2747    6.8041 C.3     1  UNL1        0.1582
     24 C           6.9067   40.9337    6.1431 C.2     1  UNL1        0.2357
     25 O           7.7997   40.5471    5.3427 O.2     1  UNL1       -0.2738
     26 N           5.8001   40.0855    6.4232 N.am    1  UNL1       -0.3277
     27 H           5.0987   40.3814    7.0475 H       1  UNL1        0.1450
     28 H           5.7354   39.2025    5.9927 H       1  UNL1        0.1450
@<TRIPOS>BOND
     1    15    16    1
     2    16    14    1
     3     5    14    1
     4     6     7   ar
     5     6    13   ar
     6     7    12   ar
     7     8     9   ar
     8    10     5   ar
     9    11    12   ar
    10    11     3    1
    11    17     1    1
    12    17    18    1
    13    18    19    1
    14    19    20    1
    15    20    22    1
    16    21    22    1
    17    21    17    1
    18    23    22    1
    19    23    24    1
    20    24    26   am
    21     3     1   am
    22     5     6   ar
    23     7     8   ar
    24     9    10   ar
    25    11    13   ar
    26     1     2    2
    27    24    25    2
    28     3     4    1
    29    26    27    1
    30    26    28    1
@<TRIPOS>MOLECULE
MolPort-016-720-375 MCULE-9130697247 PubChem-46977361
 28 30 0 0 0
SMALL
GASTEIGER

@<TRIPOS>ATOM
      1 C          10.0132   41.0884    9.9318 C.2     1  UNL1        0.2284
      2 O          10.2368   42.2541   10.3514 O.2     1  UNL1       -0.2747
      3 N           8.8296   40.7851    9.1805 N.am    1  UNL1       -0.2641
      4 H           8.7201   39.8530    8.8833 H       1  UNL1        0.1567
      5 C           4.5185   42.9987    9.4538 C.ar    1  UNL1        0.1566
      6 C           5.7975   42.7050    8.9708 C.ar    1  UNL1        0.1230
      7 C           6.3121   43.3925    7.8814 C.ar    1  UNL1        0.0527
      8 C           5.5974   44.3908    7.2265 C.ar    1  UNL1        0.0083
      9 C           4.3136   44.6977    7.7010 C.ar    1  UNL1        0.0037
     10 C           3.7773   44.0091    8.8055 C.ar    1  UNL1        0.0385
     11 C           7.7910   41.7033    8.8193 C.ar    1  UNL1        0.1656
     12 S           7.8512   42.8200    7.5413 S.2     1  UNL1       -0.0513
     13 N           6.6199   41.7611    9.4976 N.ar    1  UNL1       -0.2209
     14 O           4.0115   42.3002   10.5569 O.3     1  UNL1       -0.4739
     15 C           3.9751   40.1088   11.5703 C.3     1  UNL1        0.0512
     16 C           4.7789   41.3704   11.3140 C.3     1  UNL1        0.2056
     17 C          11.0030   40.0122   10.2270 C.3     1  UNL1        0.0928
     18 C          12.3517   40.6144   10.5944 C.3     1  UNL1        0.0119
     19 C          13.3456   39.4975   10.8668 C.3     1  UNL1        0.0179
     20 C          13.4481   38.5858    9.6404 C.3     1  UNL1        0.0725
     21 C          11.1530   39.0766    9.0209 C.3     1  UNL1        0.0816
     22 N          12.1483   38.0192    9.2478 N.3     1  UNL1       -0.2646
     23 C          11.6661   37.0957   10.2747 C.3     1  UNL1        0.1582
     24 C          12.4031   35.7931   10.2319 C.2     1  UNL1        0.2357
     25 O          13.3553   35.6102    9.4274 O.2     1  UNL1       -0.2738
     26 N          12.0178   34.7458   11.1135 N.am    1  UNL1       -0.3277
     27 H          11.2746   34.8820   11.7447 H       1  UNL1        0.1450
     28 H          12.4943   33.8846   11.0926 H       1  UNL1        0.1450
@<TRIPOS>BOND
     1    15    16    1
     2    16    14    1
     3     5    14    1
     4     6     7   ar
     5     6    13   ar
     6     7    12   ar
     7     8     9   ar
     8    10     5   ar
     9    11    12   ar
    10    11     3    1
    11    17     1    1
    12    17    18    1
    13    18    19    1
    14    19    20    1
    15    20    22    1
    16    21    22    1
    17    21    17    1
    18    23    22    1
    19    23    24    1
    20    24    26   am
    21     3     1   am
    22     5     6   ar
    23     7     8   ar
    24     9    10   ar
    25    11    13   ar
    26     1     2    2
    27    24    25    2
    28     3     4    1
    29    26    27    1
    30    26    28    1
@<TRIPOS>MOLECULE
MolPort-016-720-375 MCULE-9130697247 PubChem-46977361
 28 30 0 0 0
SMALL
GASTEIGER

@<TRIPOS>ATOM
      1 C          11.4729   40.9472    9.9562 C.2     1  UNL1        0.2284
      2 O          10.5486   40.3599   10.5771 O.2     1  UNL1       -0.2747
      3 N          11.1995   42.0736    9.1113 N.am    1  UNL1       -0.2641
      4 H          11.9703   42.4845    8.6572 H       1  UNL1        0.1567
      5 C           6.9904   42.8224    6.8127 C.ar    1  UNL1        0.1566
      6 C           7.9855   42.9828    7.7820 C.ar    1  UNL1        0.1230
      7 C           7.8231   43.8994    8.8105 C.ar    1  UNL1        0.0527
      8 C           6.6842   44.6902    8.9295 C.ar    1  UNL1        0.0083
      9 C           5.6766   44.5388    7.9654 C.ar    1  UNL1        0.0037
     10 C           5.8264   43.6130    6.9157 C.ar    1  UNL1        0.0385
     11 C           9.9166   42.6605    8.8624 C.ar    1  UNL1        0.1656
     12 S           9.1738   43.8630    9.8038 S.2     1  UNL1       -0.0513
     13 N           9.1528   42.2889    7.8072 N.ar    1  UNL1       -0.2209
     14 O           7.1643   41.8909    5.7813 O.3     1  UNL1       -0.4739
     15 C           6.2945   39.6776    6.2006 C.3     1  UNL1        0.0512
     16 C           7.5323   40.5342    6.0065 C.3     1  UNL1        0.2056
     17 C          12.8725   40.4546   10.1091 C.3     1  UNL1        0.0928
     18 C          13.7099   40.8435    8.8990 C.3     1  UNL1        0.0119
     19 C          15.1224   40.3098    9.0703 C.3     1  UNL1        0.0179
     20 C          15.0816   38.7913    9.2657 C.3     1  UNL1        0.0725
     21 C          12.8876   38.9322   10.2947 C.3     1  UNL1        0.0816
     22 N          14.2494   38.3916   10.4114 N.3     1  UNL1       -0.2646
     23 C          14.8574   38.8438   11.6626 C.3     1  UNL1        0.1582
     24 C          16.2744   38.3760   11.7853 C.2     1  UNL1        0.2357
     25 O          16.5432   37.1649   12.0060 O.2     1  UNL1       -0.2738
     26 N          17.3323   39.3170   11.6528 N.am    1  UNL1       -0.3277
     27 H          17.1294   40.2648   11.4803 H       1  UNL1        0.1450
     28 H          18.2677   39.0207   11.7335 H       1  UNL1        0.1450
@<TRIPOS>BOND
     1    15    16    1
     2    16    14    1
     3     5    14    1
     4     6     7   ar
     5     6    13   ar
     6     7    12   ar
     7     8     9   ar
     8    10     5   ar
     9    11    12   ar
    10    11     3    1
    11    17     1    1
    12    17    18    1
    13    18    19    1
    14    19    20    1
    15    20    22    1
    16    21    22    1
    17    21    17    1
    18    23    22    1
    19    23    24    1
    20    24    26   am
    21     3     1   am
    22     5     6   ar
    23     7     8   ar
    24     9    10   ar
    25    11    13   ar
    26     1     2    2
    27    24    25    2
    28     3     4    1
    29    26    27    1
    30    26    28    1
@<TRIPOS>MOLECULE
MolPort-016-720-375 MCULE-9130697247 PubChem-46977361
 28 30 0 0 0
SMALL
GASTEIGER

@<TRIPOS>ATOM
      1 C          10.1590   41.1776    8.9751 C.2     1  UNL1        0.2284
      2 O          10.3831   41.6804   10.1073 O.2     1  UNL1       -0.2747
      3 N          11.2230   40.6340    8.1815 N.am    1  UNL1       -0.2641
      4 H          10.9750   40.2562    7.3069 H       1  UNL1        0.1567
      5 C          15.8769   42.0118    8.2378 C.ar    1  UNL1        0.1566
      6 C          14.7472   41.2456    8.5413 C.ar    1  UNL1        0.1230
      7 C          14.8504   40.1411    9.3742 C.ar    1  UNL1        0.0527
      8 C          16.0588   39.7466    9.9405 C.ar    1  UNL1        0.0083
      9 C          17.2004   40.5068    9.6464 C.ar    1  UNL1        0.0037
     10 C          17.1121   41.6304    8.8031 C.ar    1  UNL1        0.0385
     11 C          12.6106   40.5861    8.5346 C.ar    1  UNL1        0.1656
     12 S          13.3399   39.4334    9.5461 S.2     1  UNL1       -0.0513
     13 N          13.4985   41.4978    8.0703 N.ar    1  UNL1       -0.2209
     14 O          15.7592   43.1269    7.3986 O.3     1  UNL1       -0.4739
     15 C          14.8403   44.5702    5.6946 C.3     1  UNL1        0.0512
     16 C          14.9011   43.1644    6.2632 C.3     1  UNL1        0.2056
     17 C           8.7592   41.1520    8.4603 C.3     1  UNL1        0.0928
     18 C           8.6172   40.1171    7.3532 C.3     1  UNL1        0.0119
     19 C           7.1898   40.1287    6.8318 C.3     1  UNL1        0.0179
     20 C           6.8293   41.5344    6.3421 C.3     1  UNL1        0.0725
     21 C           8.3528   42.5377    7.9435 C.3     1  UNL1        0.0816
     22 N           6.9920   42.5559    7.3885 N.3     1  UNL1       -0.2646
     23 C           6.0168   42.3463    8.4584 C.3     1  UNL1        0.1582
     24 C           5.0836   43.5102    8.5868 C.2     1  UNL1        0.2357
     25 O           5.5215   44.6858    8.7035 O.2     1  UNL1       -0.2738
     26 N           3.6800   43.2814    8.5793 N.am    1  UNL1       -0.3277
     27 H           3.3310   42.3654    8.4884 H       1  UNL1        0.1450
     28 H           3.0573   44.0392    8.6649 H       1  UNL1        0.1450
@<TRIPOS>BOND
     1    15    16    1
     2    16    14    1
     3     5    14    1
     4     6     7   ar
     5     6    13   ar
     6     7    12   ar
     7     8     9   ar
     8    10     5   ar
     9    11    12   ar
    10    11     3    1
    11    17     1    1
    12    17    18    1
    13    18    19    1
    14    19    20    1
    15    20    22    1
    16    21    22    1
    17    21    17    1
    18    23    22    1
    19    23    24    1
    20    24    26   am
    21     3     1   am
    22     5     6   ar
    23     7     8   ar
    24     9    10   ar
    25    11    13   ar
    26     1     2    2
    27    24    25    2
    28     3     4    1
    29    26    27    1
    30    26    28    1
@<TRIPOS>MOLECULE
MolPort-016-720-375 MCULE-9130697247 PubChem-46977361
 28 30 0 0 0
SMALL
GASTEIGER

@<TRIPOS>ATOM
      1 C          10.9750   41.8900    9.6138 C.2     1  UNL1        0.2284
      2 O          11.0225   43.1267    9.8445 O.2     1  UNL1       -0.2747
      3 N           9.7623   41.2642    9.1721 N.am    1  UNL1       -0.2641
      4 H           9.7980   40.2938    9.0100 H       1  UNL1        0.1567
      5 C           5.1536   42.5198   10.0346 C.ar    1  UNL1        0.1566
      6 C           6.3818   42.4714    9.3678 C.ar    1  UNL1        0.1230
      7 C           6.5668   43.1711    8.1844 C.ar    1  UNL1        0.0527
      8 C           5.5606   43.9430    7.6114 C.ar    1  UNL1        0.0083
      9 C           4.3236   44.0025    8.2701 C.ar    1  UNL1        0.0037
     10 C           4.1202   43.2982    9.4718 C.ar    1  UNL1        0.0385
     11 C           8.5044   41.9103    8.9433 C.ar    1  UNL1        0.1656
     12 S           8.1284   42.9172    7.6285 S.2     1  UNL1       -0.0513
     13 N           7.4610   41.7662    9.7952 N.ar    1  UNL1       -0.2209
     14 O           4.9804   41.8120   11.2307 O.3     1  UNL1       -0.4739
     15 C           2.7929   41.5011   12.2050 C.3     1  UNL1        0.0512
     16 C           3.9366   40.8659   11.4356 C.3     1  UNL1        0.2056
     17 C          12.2070   41.0714    9.8065 C.3     1  UNL1        0.0928
     18 C          13.1211   41.1907    8.5954 C.3     1  UNL1        0.0119
     19 C          14.3553   40.3299    8.8081 C.3     1  UNL1        0.0179
     20 C          13.9365   38.8784    9.0603 C.3     1  UNL1        0.0725
     21 C          11.8414   39.6019   10.0498 C.3     1  UNL1        0.0816
     22 N          13.0250   38.7448   10.2074 N.3     1  UNL1       -0.2646
     23 C          13.7199   39.0818   11.4498 C.3     1  UNL1        0.1582
     24 C          14.8639   38.1513   11.7091 C.2     1  UNL1        0.2357
     25 O          14.6765   36.9137   11.8535 O.2     1  UNL1       -0.2738
     26 N          16.1826   38.6764   11.7960 N.am    1  UNL1       -0.3277
     27 H          16.3362   39.6424   11.6842 H       1  UNL1        0.1450
     28 H          16.9420   38.0740   11.9680 H       1  UNL1        0.1450
@<TRIPOS>BOND
     1    15    16    1
     2    16    14    1
     3     5    14    1
     4     6     7   ar
     5     6    13   ar
     6     7    12   ar
     7     8     9   ar
     8    10     5   ar
     9    11    12   ar
    10    11     3    1
    11    17     1    1
    12    17    18    1
    13    18    19    1
    14    19    20    1
    15    20    22    1
    16    21    22    1
    17    21    17    1
    18    23    22    1
    19    23    24    1
    20    24    26   am
    21     3     1   am
    22     5     6   ar
    23     7     8   ar
    24     9    10   ar
    25    11    13   ar
    26     1     2    2
    27    24    25    2
    28     3     4    1
    29    26    27    1
    30    26    28    1
