@<TRIPOS>MOLECULE
Molport-047-073-863 MCULE-7053319457 PubChem-132771926
 30 33 0 0 0
SMALL
GASTEIGER

@<TRIPOS>ATOM
      1 C          10.3714   40.8212   10.1629 C.ar    1  UNL1        0.2218
      2 C           9.9763   41.2132   12.4618 C.ar    1  UNL1        0.1031
      3 C           8.6787   41.6330   12.1776 C.ar    1  UNL1        0.0355
      4 C           8.2541   41.6317   10.8460 C.ar    1  UNL1        0.0644
      5 N          10.7948   40.8148   11.4575 N.ar    1  UNL1       -0.2120
      6 N           9.1059   41.2213    9.8713 N.ar    1  UNL1       -0.2179
      7 C           6.8686   42.0534   10.4742 C.3     1  UNL1        0.0564
      8 C           5.8120   41.2672   11.2607 C.3     1  UNL1        0.0087
      9 C           4.4709   41.1894   10.5285 C.3     1  UNL1        0.0178
     10 C           4.2954   42.3905    9.6032 C.3     1  UNL1        0.0731
     11 C           6.6388   41.9364    8.9640 C.3     1  UNL1        0.0789
     12 N           5.3097   42.4178    8.5363 N.3     1  UNL1       -0.2596
     13 C           5.4523   43.8102    8.1334 C.3     1  UNL1        0.1795
     14 C           4.1489   44.4833    8.1607 C.1     1  UNL1        0.0912
     15 N           3.1208   45.0145    8.1829 N.1     1  UNL1       -0.1944
     16 N          11.2276   40.3784    9.1050 N.pl3   1  UNL1       -0.2628
     17 H          10.7979   40.0503    8.2822 H       1  UNL1        0.1570
     18 C          14.7631   41.0107    8.7079 C.ar    1  UNL1        0.1431
     19 C          15.0472   39.9135    9.5333 C.ar    1  UNL1        0.0619
     20 C          12.6577   40.3741    9.1471 C.ar    1  UNL1        0.1658
     21 S          13.5674   39.2531    9.9950 S.2     1  UNL1       -0.0507
     22 N          13.4403   41.2604    8.5018 N.ar    1  UNL1       -0.2193
     23 C          15.8288   41.8449    8.1157 C.2     1  UNL1        0.2675
     24 C          16.6278   43.7338    6.6766 C.3     1  UNL1        0.1258
     25 C          16.0232   45.0214    6.1050 C.3     1  UNL1        0.1637
     26 C          13.9903   44.1248    5.7368 C.3     1  UNL1        0.1637
     27 C          14.3660   42.7348    6.2536 C.3     1  UNL1        0.1258
     28 N          15.5539   42.8352    7.1036 N.am    1  UNL1       -0.2697
     29 O          17.0133   41.6891    8.5247 O.2     1  UNL1       -0.2682
     30 O          15.0975   44.7074    5.0923 O.3     1  UNL1       -0.3501
@<TRIPOS>BOND
     1    18    23    1
     2    18    22   ar
     3    19    21   ar
     4    20    21   ar
     5    20    16    1
     6     1     6   ar
     7     2     5   ar
     8     3     4   ar
     9     7     4    1
    10     7     8    1
    11     8     9    1
    12     9    10    1
    13    10    12    1
    14    13    12    1
    15    13    14    1
    16    11    12    1
    17    11     7    1
    18    23    28   am
    19    24    28    1
    20    24    25    1
    21    25    30    1
    22    26    30    1
    23    26    27    1
    24    27    28    1
    25    16     1    1
    26    18    19   ar
    27    20    22   ar
    28     1     5   ar
    29     2     3   ar
    30     4     6   ar
    31    23    29    2
    32    14    15    3
    33    16    17    1
@<TRIPOS>MOLECULE
Molport-047-073-863 MCULE-7053319457 PubChem-132771926
 30 33 0 0 0
SMALL
GASTEIGER

@<TRIPOS>ATOM
      1 C          10.4791   41.3152    6.1813 C.ar    1  UNL1        0.2218
      2 C           9.6527   39.1179    6.4714 C.ar    1  UNL1        0.1031
      3 C           8.4638   39.6230    6.9930 C.ar    1  UNL1        0.0355
      4 C           8.3158   41.0091    7.0940 C.ar    1  UNL1        0.0644
      5 N          10.6330   39.9659    6.0747 N.ar    1  UNL1       -0.2120
      6 N           9.3219   41.8224    6.6815 N.ar    1  UNL1       -0.2179
      7 C           7.0585   41.6171    7.6282 C.3     1  UNL1        0.0564
      8 C           6.8024   43.0024    7.0213 C.3     1  UNL1        0.0087
      9 C           5.9496   43.8929    7.9272 C.3     1  UNL1        0.0178
     10 C           5.0470   43.0429    8.8175 C.3     1  UNL1        0.0731
     11 C           7.0765   41.6752    9.1591 C.3     1  UNL1        0.0789
     12 N           5.8215   42.1948    9.7387 N.3     1  UNL1       -0.2596
     13 C           4.9774   41.0527   10.0617 C.3     1  UNL1        0.1795
     14 C           3.6025   41.2926    9.6095 C.1     1  UNL1        0.0912
     15 N           2.5175   41.4815    9.2531 N.1     1  UNL1       -0.1944
     16 N          11.5044   42.2112    5.7408 N.pl3   1  UNL1       -0.2628
     17 H          11.2963   42.7971    4.9775 H       1  UNL1        0.1570
     18 C          14.5547   41.8460    7.6434 C.ar    1  UNL1        0.1431
     19 C          15.0894   42.9667    6.9922 C.ar    1  UNL1        0.0619
     20 C          12.8075   42.3240    6.3206 C.ar    1  UNL1        0.1658
     21 S          13.9126   43.5159    5.9187 S.2     1  UNL1       -0.0507
     22 N          13.2945   41.4956    7.2645 N.ar    1  UNL1       -0.2193
     23 C          15.3153   41.0913    8.6604 C.2     1  UNL1        0.2675
     24 C          15.4907   39.3902   10.4914 C.3     1  UNL1        0.1258
     25 C          14.6750   38.1789   10.9580 C.3     1  UNL1        0.1637
     26 C          12.6777   39.1084   10.4902 C.3     1  UNL1        0.1637
     27 C          13.2638   40.4273    9.9833 C.3     1  UNL1        0.1258
     28 N          14.6677   40.2286    9.6181 N.am    1  UNL1       -0.2697
     29 O          16.5733   41.1997    8.6753 O.2     1  UNL1       -0.2682
     30 O          13.4690   38.6097   11.5419 O.3     1  UNL1       -0.3501
@<TRIPOS>BOND
     1    18    23    1
     2    18    22   ar
     3    19    21   ar
     4    20    21   ar
     5    20    16    1
     6     1     6   ar
     7     2     5   ar
     8     3     4   ar
     9     7     4    1
    10     7     8    1
    11     8     9    1
    12     9    10    1
    13    10    12    1
    14    13    12    1
    15    13    14    1
    16    11    12    1
    17    11     7    1
    18    23    28   am
    19    24    28    1
    20    24    25    1
    21    25    30    1
    22    26    30    1
    23    26    27    1
    24    27    28    1
    25    16     1    1
    26    18    19   ar
    27    20    22   ar
    28     1     5   ar
    29     2     3   ar
    30     4     6   ar
    31    23    29    2
    32    14    15    3
    33    16    17    1
@<TRIPOS>MOLECULE
Molport-047-073-863 MCULE-7053319457 PubChem-132771926
 30 33 0 0 0
SMALL
GASTEIGER

@<TRIPOS>ATOM
      1 C           9.0192   40.5958    6.0027 C.ar    1  UNL1        0.2218
      2 C           6.7248   40.0243    5.9356 C.ar    1  UNL1        0.1031
      3 C           6.6184   40.2484    7.3064 C.ar    1  UNL1        0.0355
      4 C           7.7581   40.6552    8.0059 C.ar    1  UNL1        0.0644
      5 N           7.9141   40.2026    5.3101 N.ar    1  UNL1       -0.2120
      6 N           8.9287   40.8251    7.3391 N.ar    1  UNL1       -0.2179
      7 C           7.7085   40.9297    9.4749 C.3     1  UNL1        0.0564
      8 C           6.3199   41.4157    9.9090 C.3     1  UNL1        0.0087
      9 C           6.3653   42.2672   11.1794 C.3     1  UNL1        0.0178
     10 C           7.5709   41.8882   12.0354 C.3     1  UNL1        0.0731
     11 C           8.8000   41.9206    9.8919 C.3     1  UNL1        0.0789
     12 N           8.8436   42.1629   11.3481 N.3     1  UNL1       -0.2596
     13 C           9.8288   41.2543   11.9183 C.3     1  UNL1        0.1795
     14 C          10.5261   40.5266   10.8522 C.1     1  UNL1        0.0912
     15 N          11.0768   39.9525   10.0113 N.1     1  UNL1       -0.1944
     16 N          10.2692   40.8068    5.3386 N.pl3   1  UNL1       -0.2628
     17 H          10.2872   40.6928    4.3609 H       1  UNL1        0.1570
     18 C          13.3262   42.3729    6.4608 C.ar    1  UNL1        0.1431
     19 C          13.5385   41.3101    7.3503 C.ar    1  UNL1        0.0619
     20 C          11.4947   41.1703    5.9812 C.ar    1  UNL1        0.1658
     21 S          12.2476   40.2449    7.1561 S.2     1  UNL1       -0.0507
     22 N          12.1931   42.2897    5.7100 N.ar    1  UNL1       -0.2193
     23 C          14.2631   43.5105    6.3582 C.2     1  UNL1        0.2675
     24 C          16.5134   44.5678    6.6672 C.3     1  UNL1        0.1258
     25 C          17.9537   44.0727    6.8423 C.3     1  UNL1        0.1637
     26 C          17.3851   42.2827    8.0852 C.3     1  UNL1        0.1637
     27 C          15.8847   42.5801    8.0623 C.3     1  UNL1        0.1258
     28 N          15.5816   43.4728    6.9420 N.am    1  UNL1       -0.2697
     29 O          13.8949   44.5392    5.7252 O.2     1  UNL1       -0.2682
     30 O          18.1085   43.4897    8.1140 O.3     1  UNL1       -0.3501
@<TRIPOS>BOND
     1    18    23    1
     2    18    22   ar
     3    19    21   ar
     4    20    21   ar
     5    20    16    1
     6     1     6   ar
     7     2     5   ar
     8     3     4   ar
     9     7     4    1
    10     7     8    1
    11     8     9    1
    12     9    10    1
    13    10    12    1
    14    13    12    1
    15    13    14    1
    16    11    12    1
    17    11     7    1
    18    23    28   am
    19    24    28    1
    20    24    25    1
    21    25    30    1
    22    26    30    1
    23    26    27    1
    24    27    28    1
    25    16     1    1
    26    18    19   ar
    27    20    22   ar
    28     1     5   ar
    29     2     3   ar
    30     4     6   ar
    31    23    29    2
    32    14    15    3
    33    16    17    1
@<TRIPOS>MOLECULE
Molport-047-073-863 MCULE-7053319457 PubChem-132771926
 30 33 0 0 0
SMALL
GASTEIGER

@<TRIPOS>ATOM
      1 C          12.7512   42.1896    6.3507 C.ar    1  UNL1        0.2218
      2 C          14.9542   42.9471    6.7608 C.ar    1  UNL1        0.1031
      3 C          15.1068   41.9920    7.7634 C.ar    1  UNL1        0.0355
      4 C          14.0373   41.1344    8.0357 C.ar    1  UNL1        0.0644
      5 N          13.7883   43.0283    6.0741 N.ar    1  UNL1       -0.2120
      6 N          12.8882   41.2482    7.3211 N.ar    1  UNL1       -0.2179
      7 C          14.1413   40.0758    9.0866 C.3     1  UNL1        0.0564
      8 C          12.9669   40.1443   10.0710 C.3     1  UNL1        0.0087
      9 C          13.3125   39.5564   11.4407 C.3     1  UNL1        0.0178
     10 C          14.4070   38.5006   11.3096 C.3     1  UNL1        0.0731
     11 C          15.4854   40.1496    9.8183 C.3     1  UNL1        0.0789
     12 N          15.6690   39.0732   10.8126 N.3     1  UNL1       -0.2596
     13 C          16.3902   37.9882   10.1615 C.3     1  UNL1        0.1795
     14 C          17.8372   38.2115   10.2550 C.1     1  UNL1        0.0912
     15 N          18.9789   38.3872   10.3292 N.1     1  UNL1       -0.1944
     16 N          11.5286   42.2596    5.6100 N.pl3   1  UNL1       -0.2628
     17 H          11.3990   43.0392    5.0230 H       1  UNL1        0.1570
     18 C           8.4880   40.3837    6.1510 C.ar    1  UNL1        0.1431
     19 C           9.0415   39.2963    5.4603 C.ar    1  UNL1        0.0619
     20 C          10.4796   41.2877    5.6541 C.ar    1  UNL1        0.1658
     21 S          10.5893   39.7586    4.9809 S.2     1  UNL1       -0.0507
     22 N           9.2878   41.4813    6.2512 N.ar    1  UNL1       -0.2193
     23 C           7.1243   40.3423    6.7176 C.2     1  UNL1        0.2675
     24 C           5.4108   40.9859    8.4285 C.3     1  UNL1        0.1258
     25 C           5.2378   42.1157    9.4502 C.3     1  UNL1        0.1637
     26 C           7.4264   42.2354    9.9676 C.3     1  UNL1        0.1637
     27 C           7.8462   41.1134    9.0162 C.3     1  UNL1        0.1258
     28 N           6.8093   40.9218    8.0004 N.am    1  UNL1       -0.2697
     29 O           6.2084   39.7927    6.0442 O.2     1  UNL1       -0.2682
     30 O           6.1563   41.9531   10.5042 O.3     1  UNL1       -0.3501
@<TRIPOS>BOND
     1    18    23    1
     2    18    22   ar
     3    19    21   ar
     4    20    21   ar
     5    20    16    1
     6     1     6   ar
     7     2     5   ar
     8     3     4   ar
     9     7     4    1
    10     7     8    1
    11     8     9    1
    12     9    10    1
    13    10    12    1
    14    13    12    1
    15    13    14    1
    16    11    12    1
    17    11     7    1
    18    23    28   am
    19    24    28    1
    20    24    25    1
    21    25    30    1
    22    26    30    1
    23    26    27    1
    24    27    28    1
    25    16     1    1
    26    18    19   ar
    27    20    22   ar
    28     1     5   ar
    29     2     3   ar
    30     4     6   ar
    31    23    29    2
    32    14    15    3
    33    16    17    1
@<TRIPOS>MOLECULE
Molport-047-073-863 MCULE-7053319457 PubChem-132771926
 30 33 0 0 0
SMALL
GASTEIGER

@<TRIPOS>ATOM
      1 C          13.8463   42.1902    6.7680 C.ar    1  UNL1        0.2218
      2 C          15.9944   42.8937    7.4650 C.ar    1  UNL1        0.1031
      3 C          16.0459   41.8536    8.3903 C.ar    1  UNL1        0.0355
      4 C          14.9559   40.9829    8.4761 C.ar    1  UNL1        0.0644
      5 N          14.9044   43.0427    6.6730 N.ar    1  UNL1       -0.2120
      6 N          13.8856   41.1667    7.6610 N.ar    1  UNL1       -0.2179
      7 C          14.9543   39.8358    9.4352 C.3     1  UNL1        0.0564
      8 C          13.7456   39.8934   10.3778 C.3     1  UNL1        0.0087
      9 C          13.9988   39.1730   11.7037 C.3     1  UNL1        0.0178
     10 C          15.0350   38.0669   11.5229 C.3     1  UNL1        0.0731
     11 C          16.2685   39.7658   10.2197 C.3     1  UNL1        0.0789
     12 N          16.3477   38.6008   11.1239 N.3     1  UNL1       -0.2596
     13 C          17.0317   37.5319   10.4090 C.3     1  UNL1        0.1795
     14 C          16.0945   36.8318    9.5235 C.1     1  UNL1        0.0912
     15 N          15.3548   36.2800    8.8248 N.1     1  UNL1       -0.1944
     16 N          12.7055   42.3332    5.9157 N.pl3   1  UNL1       -0.2628
     17 H          12.8094   42.8891    5.1098 H       1  UNL1        0.1570
     18 C           9.4653   41.3069    7.1422 C.ar    1  UNL1        0.1431
     19 C           9.3550   40.4002    6.0785 C.ar    1  UNL1        0.0619
     20 C          11.4263   41.7332    6.1406 C.ar    1  UNL1        0.1658
     21 S          10.7630   40.5456    5.1644 S.2     1  UNL1       -0.0507
     22 N          10.6114   42.0418    7.1678 N.ar    1  UNL1       -0.2193
     23 C           8.4019   41.4613    8.1561 C.2     1  UNL1        0.2675
     24 C           7.6072   41.7136   10.5187 C.3     1  UNL1        0.1258
     25 C           8.2192   42.1660   11.8494 C.3     1  UNL1        0.1637
     26 C          10.2376   41.2522   11.4460 C.3     1  UNL1        0.1637
     27 C           9.8527   40.6861   10.0780 C.3     1  UNL1        0.1258
     28 N           8.6760   41.3944    9.5707 N.am    1  UNL1       -0.2697
     29 O           7.2207   41.6726    7.7630 O.2     1  UNL1       -0.2682
     30 O           9.1295   41.1973   12.3119 O.3     1  UNL1       -0.3501
@<TRIPOS>BOND
     1    18    23    1
     2    18    22   ar
     3    19    21   ar
     4    20    21   ar
     5    20    16    1
     6     1     6   ar
     7     2     5   ar
     8     3     4   ar
     9     7     4    1
    10     7     8    1
    11     8     9    1
    12     9    10    1
    13    10    12    1
    14    13    12    1
    15    13    14    1
    16    11    12    1
    17    11     7    1
    18    23    28   am
    19    24    28    1
    20    24    25    1
    21    25    30    1
    22    26    30    1
    23    26    27    1
    24    27    28    1
    25    16     1    1
    26    18    19   ar
    27    20    22   ar
    28     1     5   ar
    29     2     3   ar
    30     4     6   ar
    31    23    29    2
    32    14    15    3
    33    16    17    1
@<TRIPOS>MOLECULE
Molport-047-073-863 MCULE-7053319457 PubChem-132771926
 30 33 0 0 0
SMALL
GASTEIGER

@<TRIPOS>ATOM
      1 C          11.1684   41.3323    6.0691 C.ar    1  UNL1        0.2218
      2 C           9.8770   39.4396    5.4815 C.ar    1  UNL1        0.1031
      3 C           9.1204   39.5827    6.6425 C.ar    1  UNL1        0.0355
      4 C           9.4233   40.6359    7.5101 C.ar    1  UNL1        0.0644
      5 N          10.8797   40.3117    5.2144 N.ar    1  UNL1       -0.2120
      6 N          10.4342   41.4885    7.2019 N.ar    1  UNL1       -0.2179
      7 C           8.6392   40.8565    8.7640 C.3     1  UNL1        0.0564
      8 C           7.2517   41.4379    8.4639 C.3     1  UNL1        0.0087
      9 C           6.6804   42.2331    9.6396 C.3     1  UNL1        0.0178
     10 C           7.2529   41.7235   10.9595 C.3     1  UNL1        0.0731
     11 C           9.4094   41.7375    9.7529 C.3     1  UNL1        0.0789
     12 N           8.7099   41.9190   11.0409 N.3     1  UNL1       -0.2596
     13 C           9.2140   40.9111   11.9637 C.3     1  UNL1        0.1795
     14 C           8.9684   41.3231   13.3502 C.1     1  UNL1        0.0912
     15 N           8.7745   41.6487   14.4439 N.1     1  UNL1       -0.1944
     16 N          12.2116   42.2670    5.7757 N.pl3   1  UNL1       -0.2628
     17 H          12.0570   42.9014    5.0389 H       1  UNL1        0.1570
     18 C          15.1105   41.7944    7.8805 C.ar    1  UNL1        0.1431
     19 C          15.6644   42.9793    7.3756 C.ar    1  UNL1        0.0619
     20 C          13.4612   42.3536    6.4671 C.ar    1  UNL1        0.1658
     21 S          14.5617   43.5987    6.2623 S.2     1  UNL1       -0.0507
     22 N          13.8943   41.4540    7.3713 N.ar    1  UNL1       -0.2193
     23 C          15.8085   40.9672    8.8859 C.2     1  UNL1        0.2675
     24 C          15.8562   39.1955   10.6568 C.3     1  UNL1        0.1258
     25 C          14.9713   38.0105   11.0603 C.3     1  UNL1        0.1637
     26 C          13.0337   39.0542   10.5823 C.3     1  UNL1        0.1637
     27 C          13.6957   40.3595   10.1373 C.3     1  UNL1        0.1258
     28 N          15.0966   40.1043    9.7966 N.am    1  UNL1       -0.2697
     29 O          17.0696   41.0123    8.9329 O.2     1  UNL1       -0.2682
     30 O          13.7740   38.4797   11.6324 O.3     1  UNL1       -0.3501
@<TRIPOS>BOND
     1    18    23    1
     2    18    22   ar
     3    19    21   ar
     4    20    21   ar
     5    20    16    1
     6     1     6   ar
     7     2     5   ar
     8     3     4   ar
     9     7     4    1
    10     7     8    1
    11     8     9    1
    12     9    10    1
    13    10    12    1
    14    13    12    1
    15    13    14    1
    16    11    12    1
    17    11     7    1
    18    23    28   am
    19    24    28    1
    20    24    25    1
    21    25    30    1
    22    26    30    1
    23    26    27    1
    24    27    28    1
    25    16     1    1
    26    18    19   ar
    27    20    22   ar
    28     1     5   ar
    29     2     3   ar
    30     4     6   ar
    31    23    29    2
    32    14    15    3
    33    16    17    1
@<TRIPOS>MOLECULE
Molport-047-073-863 MCULE-7053319457 PubChem-132771926
 30 33 0 0 0
SMALL
GASTEIGER

@<TRIPOS>ATOM
      1 C          10.0474   41.1726    8.2719 C.ar    1  UNL1        0.2218
      2 C           9.7204   41.5206    5.9552 C.ar    1  UNL1        0.1031
      3 C           8.4104   41.9314    6.1915 C.ar    1  UNL1        0.0355
      4 C           7.9453   41.9512    7.5093 C.ar    1  UNL1        0.0644
      5 N          10.5126   41.1528    6.9918 N.ar    1  UNL1       -0.2120
      6 N           8.7739   41.5779    8.5182 N.ar    1  UNL1       -0.2179
      7 C           6.5557   42.3982    7.8338 C.3     1  UNL1        0.0564
      8 C           6.3510   43.8818    7.5020 C.3     1  UNL1        0.0087
      9 C           5.2438   44.5244    8.3398 C.3     1  UNL1        0.0178
     10 C           4.2197   43.4768    8.7681 C.3     1  UNL1        0.0731
     11 C           6.2038   42.1013    9.2951 C.3     1  UNL1        0.0789
     12 N           4.8121   42.4519    9.6435 N.3     1  UNL1       -0.2596
     13 C           4.0014   41.2520    9.4870 C.3     1  UNL1        0.1795
     14 C           3.9957   40.4764   10.7323 C.1     1  UNL1        0.0912
     15 N           3.9919   39.8645   11.7149 N.1     1  UNL1       -0.1944
     16 N          10.8909   40.8068    9.3687 N.pl3   1  UNL1       -0.2628
     17 H          10.4655   40.6960   10.2496 H       1  UNL1        0.1570
     18 C          14.4486   40.9695    8.7577 C.ar    1  UNL1        0.1431
     19 C          14.6115   39.7368    9.4056 C.ar    1  UNL1        0.0619
     20 C          12.3026   40.5893    9.2878 C.ar    1  UNL1        0.1658
     21 S          13.0799   39.2393    9.9015 S.2     1  UNL1       -0.0507
     22 N          13.1702   41.4352    8.6994 N.ar    1  UNL1       -0.2193
     23 C          15.5906   41.7158    8.1908 C.2     1  UNL1        0.2675
     24 C          16.5699   43.5331    6.7712 C.3     1  UNL1        0.1258
     25 C          16.0826   44.8635    6.1856 C.3     1  UNL1        0.1637
     26 C          13.9944   44.1297    5.7696 C.3     1  UNL1        0.1637
     27 C          14.2467   42.7153    6.2949 C.3     1  UNL1        0.1258
     28 N          15.4186   42.7230    7.1727 N.am    1  UNL1       -0.2697
     29 O          16.7491   41.4676    8.6276 O.2     1  UNL1       -0.2682
     30 O          15.1590   44.6219    5.1514 O.3     1  UNL1       -0.3501
@<TRIPOS>BOND
     1    18    23    1
     2    18    22   ar
     3    19    21   ar
     4    20    21   ar
     5    20    16    1
     6     1     6   ar
     7     2     5   ar
     8     3     4   ar
     9     7     4    1
    10     7     8    1
    11     8     9    1
    12     9    10    1
    13    10    12    1
    14    13    12    1
    15    13    14    1
    16    11    12    1
    17    11     7    1
    18    23    28   am
    19    24    28    1
    20    24    25    1
    21    25    30    1
    22    26    30    1
    23    26    27    1
    24    27    28    1
    25    16     1    1
    26    18    19   ar
    27    20    22   ar
    28     1     5   ar
    29     2     3   ar
    30     4     6   ar
    31    23    29    2
    32    14    15    3
    33    16    17    1
@<TRIPOS>MOLECULE
Molport-047-073-863 MCULE-7053319457 PubChem-132771926
 30 33 0 0 0
SMALL
GASTEIGER

@<TRIPOS>ATOM
      1 C          11.6370   39.3089    9.9058 C.ar    1  UNL1        0.2218
      2 C          10.2835   38.2121    8.3057 C.ar    1  UNL1        0.1031
      3 C           9.5269   39.3697    8.1373 C.ar    1  UNL1        0.0355
      4 C           9.8637   40.5011    8.8856 C.ar    1  UNL1        0.0644
      5 N          11.3202   38.2013    9.1790 N.ar    1  UNL1       -0.2120
      6 N          10.9123   40.4474    9.7467 N.ar    1  UNL1       -0.2179
      7 C           9.1038   41.7806    8.7400 C.3     1  UNL1        0.0564
      8 C           9.9035   42.9733    9.2795 C.3     1  UNL1        0.0087
      9 C           9.0063   44.1304    9.7235 C.3     1  UNL1        0.0178
     10 C           7.6911   44.1160    8.9491 C.3     1  UNL1        0.0731
     11 C           7.7268   41.6876    9.4053 C.3     1  UNL1        0.0789
     12 N           6.9052   42.9007    9.2193 N.3     1  UNL1       -0.2596
     13 C           6.0572   42.6861    8.0547 C.3     1  UNL1        0.1795
     14 C           6.8575   42.7406    6.8262 C.1     1  UNL1        0.0912
     15 N           7.4892   42.7830    5.8572 N.1     1  UNL1       -0.1944
     16 N          12.7460   39.3047   10.8104 N.pl3   1  UNL1       -0.2628
     17 H          12.5634   39.0714   11.7493 H       1  UNL1        0.1570
     18 C          15.8095   40.6177    9.4146 C.ar    1  UNL1        0.1431
     19 C          16.5472   39.7315   10.2123 C.ar    1  UNL1        0.0619
     20 C          14.0986   39.6124   10.4601 C.ar    1  UNL1        0.1658
     21 S          15.4344   38.8401   11.1102 S.2     1  UNL1       -0.0507
     22 N          14.4572   40.5477    9.5595 N.ar    1  UNL1       -0.2193
     23 C          16.4594   41.5705    8.4915 C.2     1  UNL1        0.2675
     24 C          16.3972   43.4407    6.8254 C.3     1  UNL1        0.1258
     25 C          15.4112   44.5513    6.4454 C.3     1  UNL1        0.1637
     26 C          13.5747   43.2888    6.7702 C.3     1  UNL1        0.1637
     27 C          14.3500   42.0335    7.1742 C.3     1  UNL1        0.1258
     28 N          15.7007   42.4093    7.5962 N.am    1  UNL1       -0.2697
     29 O          17.7191   41.6570    8.5035 O.2     1  UNL1       -0.2682
     30 O          14.2951   43.9976    5.7906 O.3     1  UNL1       -0.3501
@<TRIPOS>BOND
     1    18    23    1
     2    18    22   ar
     3    19    21   ar
     4    20    21   ar
     5    20    16    1
     6     1     6   ar
     7     2     5   ar
     8     3     4   ar
     9     7     4    1
    10     7     8    1
    11     8     9    1
    12     9    10    1
    13    10    12    1
    14    13    12    1
    15    13    14    1
    16    11    12    1
    17    11     7    1
    18    23    28   am
    19    24    28    1
    20    24    25    1
    21    25    30    1
    22    26    30    1
    23    26    27    1
    24    27    28    1
    25    16     1    1
    26    18    19   ar
    27    20    22   ar
    28     1     5   ar
    29     2     3   ar
    30     4     6   ar
    31    23    29    2
    32    14    15    3
    33    16    17    1
@<TRIPOS>MOLECULE
Molport-047-073-863 MCULE-7053319457 PubChem-132771926
 30 33 0 0 0
SMALL
GASTEIGER

@<TRIPOS>ATOM
      1 C           9.8255   41.4021    5.8722 C.ar    1  UNL1        0.2218
      2 C           8.5213   39.5071    5.3215 C.ar    1  UNL1        0.1031
      3 C           7.4671   39.9969    6.0893 C.ar    1  UNL1        0.0355
      4 C           7.6326   41.2193    6.7465 C.ar    1  UNL1        0.0644
      5 N           9.6741   40.2136    5.2242 N.ar    1  UNL1       -0.2120
      6 N           8.8031   41.8958    6.6189 N.ar    1  UNL1       -0.2179
      7 C           6.5347   41.8099    7.5721 C.3     1  UNL1        0.0564
      8 C           6.2945   43.2825    7.2165 C.3     1  UNL1        0.0087
      9 C           5.6785   44.0737    8.3722 C.3     1  UNL1        0.0178
     10 C           4.8704   43.1520    9.2816 C.3     1  UNL1        0.0731
     11 C           6.8111   41.6371    9.0692 C.3     1  UNL1        0.0789
     12 N           5.7157   42.1336    9.9264 N.3     1  UNL1       -0.2596
     13 C           4.8474   41.0050   10.2323 C.3     1  UNL1        0.1795
     14 C           3.5153   41.2175    9.6553 C.1     1  UNL1        0.0912
     15 N           2.4646   41.3853    9.1994 N.1     1  UNL1       -0.1944
     16 N          11.0338   42.1594    5.7506 N.pl3   1  UNL1       -0.2628
     17 H          11.0350   42.9107    5.1144 H       1  UNL1        0.1570
     18 C          13.6454   40.9232    7.9205 C.ar    1  UNL1        0.1431
     19 C          14.4963   41.9420    7.4690 C.ar    1  UNL1        0.0619
     20 C          12.2399   41.9125    6.4794 C.ar    1  UNL1        0.1658
     21 S          13.6242   42.8448    6.3450 S.2     1  UNL1       -0.0507
     22 N          12.4013   40.9120    7.3667 N.ar    1  UNL1       -0.2193
     23 C          14.0776   39.9236    8.9187 C.2     1  UNL1        0.2675
     24 C          13.7453   37.8252   10.2467 C.3     1  UNL1        0.1258
     25 C          12.8887   36.5602   10.1205 C.3     1  UNL1        0.1637
     26 C          11.1013   37.6305    9.2650 C.3     1  UNL1        0.1637
     27 C          11.7482   39.0161    9.3054 C.3     1  UNL1        0.1258
     28 N          13.2034   38.8729    9.3797 N.am    1  UNL1       -0.2697
     29 O          15.2564   39.9902    9.3667 O.2     1  UNL1       -0.2682
     30 O          11.5378   36.8699   10.3659 O.3     1  UNL1       -0.3501
@<TRIPOS>BOND
     1    18    23    1
     2    18    22   ar
     3    19    21   ar
     4    20    21   ar
     5    20    16    1
     6     1     6   ar
     7     2     5   ar
     8     3     4   ar
     9     7     4    1
    10     7     8    1
    11     8     9    1
    12     9    10    1
    13    10    12    1
    14    13    12    1
    15    13    14    1
    16    11    12    1
    17    11     7    1
    18    23    28   am
    19    24    28    1
    20    24    25    1
    21    25    30    1
    22    26    30    1
    23    26    27    1
    24    27    28    1
    25    16     1    1
    26    18    19   ar
    27    20    22   ar
    28     1     5   ar
    29     2     3   ar
    30     4     6   ar
    31    23    29    2
    32    14    15    3
    33    16    17    1
@<TRIPOS>MOLECULE
Molport-047-073-863 MCULE-7053319457 PubChem-132771926
 30 33 0 0 0
SMALL
GASTEIGER

@<TRIPOS>ATOM
      1 C          10.8271   41.0631    6.1237 C.ar    1  UNL1        0.2218
      2 C           9.6518   39.0240    6.3604 C.ar    1  UNL1        0.1031
      3 C           8.6491   39.6734    7.0771 C.ar    1  UNL1        0.0355
      4 C           8.7725   41.0476    7.3005 C.ar    1  UNL1        0.0644
      5 N          10.7155   39.7246    5.8967 N.ar    1  UNL1       -0.2120
      6 N           9.8531   41.7112    6.8150 N.ar    1  UNL1       -0.2179
      7 C           7.7236   41.8084    8.0468 C.3     1  UNL1        0.0564
      8 C           6.6124   40.8814    8.5554 C.3     1  UNL1        0.0087
      9 C           5.2821   41.6111    8.7528 C.3     1  UNL1        0.0178
     10 C           5.5208   43.0898    9.0464 C.3     1  UNL1        0.0731
     11 C           7.1521   42.9470    7.1958 C.3     1  UNL1        0.0789
     12 N           6.1683   43.7788    7.9178 N.3     1  UNL1       -0.2596
     13 C           6.8803   44.9186    8.4793 C.3     1  UNL1        0.1795
     14 C           7.9931   44.4597    9.3182 C.1     1  UNL1        0.0912
     15 N           8.8712   44.0982    9.9801 N.1     1  UNL1       -0.1944
     16 N          11.9383   41.8072    5.6140 N.pl3   1  UNL1       -0.2628
     17 H          11.8596   42.1711    4.7026 H       1  UNL1        0.1570
     18 C          14.8330   41.7487    7.7760 C.ar    1  UNL1        0.1431
     19 C          15.2457   42.9807    7.2490 C.ar    1  UNL1        0.0619
     20 C          13.1542   42.0648    6.3225 C.ar    1  UNL1        0.1658
     21 S          14.0961   43.4315    6.1025 S.2     1  UNL1       -0.0507
     22 N          13.6780   41.2479    7.2568 N.ar    1  UNL1       -0.2193
     23 C          15.6088   41.0389    8.8137 C.2     1  UNL1        0.2675
     24 C          15.8276   39.3667   10.6665 C.3     1  UNL1        0.1258
     25 C          15.0580   38.1258   11.1335 C.3     1  UNL1        0.1637
     26 C          13.0301   38.9618   10.6228 C.3     1  UNL1        0.1637
     27 C          13.5664   40.2997   10.1106 C.3     1  UNL1        0.1258
     28 N          14.9836   40.1589    9.7705 N.am    1  UNL1       -0.2697
     29 O          16.8604   41.2025    8.8478 O.2     1  UNL1       -0.2682
     30 O          13.8247   38.5095   11.6928 O.3     1  UNL1       -0.3501
@<TRIPOS>BOND
     1    18    23    1
     2    18    22   ar
     3    19    21   ar
     4    20    21   ar
     5    20    16    1
     6     1     6   ar
     7     2     5   ar
     8     3     4   ar
     9     7     4    1
    10     7     8    1
    11     8     9    1
    12     9    10    1
    13    10    12    1
    14    13    12    1
    15    13    14    1
    16    11    12    1
    17    11     7    1
    18    23    28   am
    19    24    28    1
    20    24    25    1
    21    25    30    1
    22    26    30    1
    23    26    27    1
    24    27    28    1
    25    16     1    1
    26    18    19   ar
    27    20    22   ar
    28     1     5   ar
    29     2     3   ar
    30     4     6   ar
    31    23    29    2
    32    14    15    3
    33    16    17    1
