@<TRIPOS>MOLECULE
MolPort-035-706-982 CSSS03437789237 MCULE-1941433661 PubChem-91938307
 30 32 0 0 0
SMALL
GASTEIGER

@<TRIPOS>ATOM
      1 C           6.3736   37.9647   15.1883 C.3     1  UNL1        0.2880
      2 C           4.8599   37.9504   15.0283 C.3     1  UNL1        0.0650
      3 C           7.8619   39.4100   13.7651 C.ar    1  UNL1        0.1542
      4 C           8.4089   39.6541   12.5020 C.ar    1  UNL1        0.0529
      5 C           9.3378   40.6842   12.3174 C.ar    1  UNL1        0.0537
      6 C           9.7142   41.4741   13.4149 C.ar    1  UNL1        0.0162
      7 C           9.1670   41.2352   14.6786 C.ar    1  UNL1        0.0190
      8 C           8.2421   40.2033   14.8521 C.ar    1  UNL1        0.0850
      9 C           6.7378   38.8976   16.3260 C.2     1  UNL1        0.2732
     10 O           6.9342   38.3761   13.9311 O.3     1  UNL1       -0.4618
     11 O           6.2346   38.7262   17.4691 O.2     1  UNL1       -0.2704
     12 N           7.6696   39.9615   16.1317 N.am    1  UNL1       -0.2783
     13 H           7.9191   40.5346   16.8923 H       1  UNL1        0.1551
     14 C           9.1768   41.3970    9.8549 C.2     1  UNL1        0.2518
     15 O           7.9543   41.6974    9.9363 O.2     1  UNL1       -0.2697
     16 N           9.8762   40.8990   11.0056 N.am    1  UNL1       -0.2802
     17 H          10.8281   40.6814   10.8807 H       1  UNL1        0.1552
     18 C           9.8810   41.5636    8.5619 C.ar    1  UNL1        0.0833
     19 C           9.2734   41.0813    7.3912 C.ar    1  UNL1        0.0364
     20 C           9.9009   41.2166    6.1509 C.ar    1  UNL1        0.1404
     21 C          11.1473   41.8375    6.0643 C.ar    1  UNL1        0.0319
     22 C          11.7655   42.3226    7.2179 C.ar    1  UNL1        0.0321
     23 C          11.1430   42.1906    8.4635 C.ar    1  UNL1        0.1446
     24 F           9.2995   40.7452    5.0325 F       1  UNL1       -0.2042
     25 F          11.7812   42.6769    9.5566 F       1  UNL1       -0.2040
     26 C           6.8699   36.5811   15.5093 C.2     1  UNL1        0.3623
     27 O           7.5619   36.3778   16.5462 O.2     1  UNL1       -0.2457
     28 O           6.6130   35.5356   14.6194 O.3     1  UNL1       -0.4458
     29 C           8.2313   33.8645   15.1882 C.3     1  UNL1        0.0513
     30 C           6.7623   34.1752   14.9954 C.3     1  UNL1        0.2087
@<TRIPOS>BOND
     1    29    30    1
     2    30    28    1
     3    26    28    1
     4     1    26    1
     5     1     2    1
     6     1    10    1
     7     1     9    1
     8     3    10    1
     9     4     5   ar
    10     5    16    1
    11    14    18    1
    12    19    20   ar
    13    20    24    1
    14    21    22   ar
    15    23    25    1
    16    23    18   ar
    17     6     7   ar
    18     8    12    1
    19     8     3   ar
    20    16    14   am
    21    12     9   am
    22    26    27    2
    23     3     4   ar
    24     5     6   ar
    25    14    15    2
    26    18    19   ar
    27    20    21   ar
    28    22    23   ar
    29     7     8   ar
    30     9    11    2
    31    16    17    1
    32    12    13    1
@<TRIPOS>MOLECULE
MolPort-035-706-982 CSSS03437789237 MCULE-1941433661 PubChem-91938307
 30 32 0 0 0
SMALL
GASTEIGER

@<TRIPOS>ATOM
      1 C           6.1236   38.2502   14.1213 C.3     1  UNL1        0.2880
      2 C           4.6427   38.5940   14.0464 C.3     1  UNL1        0.0650
      3 C           7.8935   39.6946   13.0673 C.ar    1  UNL1        0.1542
      4 C           8.4864   40.1620   11.8908 C.ar    1  UNL1        0.0529
      5 C           9.6149   40.9878   11.9438 C.ar    1  UNL1        0.0537
      6 C          10.1457   41.3455   13.1929 C.ar    1  UNL1        0.0162
      7 C           9.5538   40.8829   14.3714 C.ar    1  UNL1        0.0190
      8 C           8.4289   40.0577   14.3070 C.ar    1  UNL1        0.0850
      9 C           6.6729   38.7335   15.4487 C.2     1  UNL1        0.2732
     10 O           6.7655   38.8701   12.9953 O.3     1  UNL1       -0.4618
     11 O           6.1389   38.3586   16.5273 O.2     1  UNL1       -0.2704
     12 N           7.8115   39.5930   15.5014 N.am    1  UNL1       -0.2783
     13 H           8.1737   39.8675   16.3747 H       1  UNL1        0.1551
     14 C          11.1581   40.7533    9.9039 C.2     1  UNL1        0.2518
     15 O          11.5866   39.6200   10.2552 O.2     1  UNL1       -0.2697
     16 N          10.1934   41.4431   10.7130 N.am    1  UNL1       -0.2802
     17 H           9.8969   42.3237   10.3879 H       1  UNL1        0.1552
     18 C          11.6604   41.3628    8.6503 C.ar    1  UNL1        0.0833
     19 C          13.0296   41.6545    8.5386 C.ar    1  UNL1        0.0364
     20 C          13.5466   42.2293    7.3754 C.ar    1  UNL1        0.1404
     21 C          12.6994   42.5207    6.3059 C.ar    1  UNL1        0.0319
     22 C          11.3360   42.2374    6.4000 C.ar    1  UNL1        0.0321
     23 C          10.8111   41.6618    7.5617 C.ar    1  UNL1        0.1446
     24 F          14.8700   42.5035    7.2859 F       1  UNL1       -0.2042
     25 F           9.4806   41.4042    7.6079 F       1  UNL1       -0.2040
     26 C           6.3112   36.7605   14.0249 C.2     1  UNL1        0.3623
     27 O           6.2938   36.1883   12.8990 O.2     1  UNL1       -0.2457
     28 O           6.4415   36.0076   15.1942 O.3     1  UNL1       -0.4458
     29 C           6.2869   33.6355   14.9036 C.3     1  UNL1        0.0513
     30 C           7.1919   34.8036   15.2327 C.3     1  UNL1        0.2087
@<TRIPOS>BOND
     1    29    30    1
     2    30    28    1
     3    26    28    1
     4     1    26    1
     5     1     2    1
     6     1    10    1
     7     1     9    1
     8     3    10    1
     9     4     5   ar
    10     5    16    1
    11    14    18    1
    12    19    20   ar
    13    20    24    1
    14    21    22   ar
    15    23    25    1
    16    23    18   ar
    17     6     7   ar
    18     8    12    1
    19     8     3   ar
    20    16    14   am
    21    12     9   am
    22    26    27    2
    23     3     4   ar
    24     5     6   ar
    25    14    15    2
    26    18    19   ar
    27    20    21   ar
    28    22    23   ar
    29     7     8   ar
    30     9    11    2
    31    16    17    1
    32    12    13    1
@<TRIPOS>MOLECULE
MolPort-035-706-982 CSSS03437789237 MCULE-1941433661 PubChem-91938307
 30 32 0 0 0
SMALL
GASTEIGER

@<TRIPOS>ATOM
      1 C           7.0222   42.1092    9.0576 C.3     1  UNL1        0.2880
      2 C           6.4805   41.8444   10.4552 C.3     1  UNL1        0.0650
      3 C           9.3605   41.4745    8.3800 C.ar    1  UNL1        0.1542
      4 C          10.7311   41.7178    8.5071 C.ar    1  UNL1        0.0529
      5 C          11.6538   41.0040    7.7341 C.ar    1  UNL1        0.0537
      6 C          11.1888   40.0370    6.8293 C.ar    1  UNL1        0.0162
      7 C           9.8194   39.7886    6.7017 C.ar    1  UNL1        0.0190
      8 C           8.9071   40.5080    7.4768 C.ar    1  UNL1        0.0850
      9 C           6.5686   40.9943    8.1364 C.2     1  UNL1        0.2732
     10 O           8.4524   42.1972    9.1612 O.3     1  UNL1       -0.4618
     11 O           5.3418   40.7261    8.0259 O.2     1  UNL1       -0.2704
     12 N           7.5123   40.2525    7.3637 N.am    1  UNL1       -0.2783
     13 H           7.1940   39.5557    6.7453 H       1  UNL1        0.1551
     14 C          13.8250   42.2558    7.1711 C.2     1  UNL1        0.2518
     15 O          13.2805   42.9697    6.2851 O.2     1  UNL1       -0.2697
     16 N          13.0506   41.2866    7.8939 N.am    1  UNL1       -0.2802
     17 H          13.5305   40.7590    8.5726 H       1  UNL1        0.1552
     18 C          15.2686   42.4281    7.4567 C.ar    1  UNL1        0.0833
     19 C          16.0053   43.3511    6.6967 C.ar    1  UNL1        0.0364
     20 C          17.3682   43.5459    6.9315 C.ar    1  UNL1        0.1404
     21 C          18.0142   42.8188    7.9317 C.ar    1  UNL1        0.0319
     22 C          17.2972   41.8973    8.6965 C.ar    1  UNL1        0.0321
     23 C          15.9321   41.6968    8.4671 C.ar    1  UNL1        0.1446
     24 F          18.0624   44.4406    6.1883 F       1  UNL1       -0.2042
     25 F          15.2766   40.7914    9.2346 F       1  UNL1       -0.2040
     26 C           6.4934   43.4195    8.5408 C.2     1  UNL1        0.3623
     27 O           7.0759   44.0096    7.5880 O.2     1  UNL1       -0.2457
     28 O           5.3911   44.0091    9.1641 O.3     1  UNL1       -0.4458
     29 C           3.8576   45.0672    7.6594 C.3     1  UNL1        0.0513
     30 C           4.0834   43.9191    8.6200 C.3     1  UNL1        0.2087
@<TRIPOS>BOND
     1    29    30    1
     2    30    28    1
     3    26    28    1
     4     1    26    1
     5     1     2    1
     6     1    10    1
     7     1     9    1
     8     3    10    1
     9     4     5   ar
    10     5    16    1
    11    14    18    1
    12    19    20   ar
    13    20    24    1
    14    21    22   ar
    15    23    25    1
    16    23    18   ar
    17     6     7   ar
    18     8    12    1
    19     8     3   ar
    20    16    14   am
    21    12     9   am
    22    26    27    2
    23     3     4   ar
    24     5     6   ar
    25    14    15    2
    26    18    19   ar
    27    20    21   ar
    28    22    23   ar
    29     7     8   ar
    30     9    11    2
    31    16    17    1
    32    12    13    1
@<TRIPOS>MOLECULE
MolPort-035-706-982 CSSS03437789237 MCULE-1941433661 PubChem-91938307
 30 32 0 0 0
SMALL
GASTEIGER

@<TRIPOS>ATOM
      1 C           7.1228   41.6876    7.6404 C.3     1  UNL1        0.2880
      2 C           6.4895   41.0543    8.8712 C.3     1  UNL1        0.0650
      3 C           9.5618   41.4088    7.0897 C.ar    1  UNL1        0.1542
      4 C          10.8860   41.7144    7.4170 C.ar    1  UNL1        0.0529
      5 C          11.9375   41.2781    6.6031 C.ar    1  UNL1        0.0537
      6 C          11.6492   40.5265    5.4533 C.ar    1  UNL1        0.0162
      7 C          10.3268   40.2162    5.1246 C.ar    1  UNL1        0.0190
      8 C           9.2849   40.6582    5.9429 C.ar    1  UNL1        0.0850
      9 C           6.8616   40.7978    6.4415 C.2     1  UNL1        0.2732
     10 O           8.5232   41.8529    7.9152 O.3     1  UNL1       -0.4618
     11 O           5.6809   40.4747    6.1400 O.2     1  UNL1       -0.2704
     12 N           7.9366   40.3357    5.6237 N.am    1  UNL1       -0.2783
     13 H           7.7426   39.7873    4.8294 H       1  UNL1        0.1551
     14 C          13.9683   42.8474    6.7063 C.2     1  UNL1        0.2518
     15 O          13.3864   43.7757    6.0810 O.2     1  UNL1       -0.2697
     16 N          13.2810   41.6156    6.9740 N.am    1  UNL1       -0.2802
     17 H          13.7867   40.9285    7.4652 H       1  UNL1        0.1552
     18 C          15.3653   43.0420    7.1602 C.ar    1  UNL1        0.0833
     19 C          15.9399   42.0884    8.0161 C.ar    1  UNL1        0.0364
     20 C          17.2533   42.2316    8.4687 C.ar    1  UNL1        0.1404
     21 C          18.0117   43.3329    8.0704 C.ar    1  UNL1        0.0319
     22 C          17.4563   44.2902    7.2201 C.ar    1  UNL1        0.0321
     23 C          16.1415   44.1535    6.7628 C.ar    1  UNL1        0.1446
     24 F          17.7906   41.3015    9.2938 F       1  UNL1       -0.2042
     25 F          15.6442   45.1082    5.9383 F       1  UNL1       -0.2040
     26 C           6.5164   43.0414    7.3890 C.2     1  UNL1        0.3623
     27 O           6.6346   43.5917    6.2582 O.2     1  UNL1       -0.2457
     28 O           5.8765   43.7121    8.4339 O.3     1  UNL1       -0.4458
     29 C           3.8749   44.8744    7.8192 C.3     1  UNL1        0.0513
     30 C           4.4646   43.7048    8.5782 C.3     1  UNL1        0.2087
@<TRIPOS>BOND
     1    29    30    1
     2    30    28    1
     3    26    28    1
     4     1    26    1
     5     1     2    1
     6     1    10    1
     7     1     9    1
     8     3    10    1
     9     4     5   ar
    10     5    16    1
    11    14    18    1
    12    19    20   ar
    13    20    24    1
    14    21    22   ar
    15    23    25    1
    16    23    18   ar
    17     6     7   ar
    18     8    12    1
    19     8     3   ar
    20    16    14   am
    21    12     9   am
    22    26    27    2
    23     3     4   ar
    24     5     6   ar
    25    14    15    2
    26    18    19   ar
    27    20    21   ar
    28    22    23   ar
    29     7     8   ar
    30     9    11    2
    31    16    17    1
    32    12    13    1
@<TRIPOS>MOLECULE
MolPort-035-706-982 CSSS03437789237 MCULE-1941433661 PubChem-91938307
 30 32 0 0 0
SMALL
GASTEIGER

@<TRIPOS>ATOM
      1 C          14.0353   38.7287   10.4868 C.3     1  UNL1        0.2880
      2 C          14.5966   38.6612   11.9002 C.3     1  UNL1        0.0650
      3 C          11.9916   40.0801    9.9155 C.ar    1  UNL1        0.1542
      4 C          10.6057   40.2252   10.0275 C.ar    1  UNL1        0.0529
      5 C           9.9433   41.2586    9.3555 C.ar    1  UNL1        0.0537
      6 C          10.6859   42.1521    8.5680 C.ar    1  UNL1        0.0162
      7 C          12.0720   42.0123    8.4562 C.ar    1  UNL1        0.0190
      8 C          12.7229   40.9762    9.1297 C.ar    1  UNL1        0.0850
      9 C          14.8096   39.7680    9.7008 C.2     1  UNL1        0.2732
     10 O          12.6373   39.0413   10.5947 O.3     1  UNL1       -0.4618
     11 O          16.0642   39.6857    9.6099 O.2     1  UNL1       -0.2704
     12 N          14.1350   40.8341    9.0328 N.am    1  UNL1       -0.2783
     13 H          14.6532   41.4787    8.4988 H       1  UNL1        0.1551
     14 C           7.6701   42.3697    8.9136 C.2     1  UNL1        0.2518
     15 O           8.1622   43.2784    8.1901 O.2     1  UNL1       -0.2697
     16 N           8.5205   41.3700    9.4956 N.am    1  UNL1       -0.2802
     17 H           8.0791   40.6872   10.0508 H       1  UNL1        0.1552
     18 C           6.2084   42.3458    9.1554 C.ar    1  UNL1        0.0833
     19 C           5.6262   41.1803    9.6796 C.ar    1  UNL1        0.0364
     20 C           4.2527   41.1133    9.9233 C.ar    1  UNL1        0.1404
     21 C           3.4410   42.2135    9.6455 C.ar    1  UNL1        0.0319
     22 C           4.0030   43.3798    9.1241 C.ar    1  UNL1        0.0321
     23 C           5.3778   43.4543    8.8775 C.ar    1  UNL1        0.1446
     24 F           3.7090   39.9806   10.4292 F       1  UNL1       -0.2042
     25 F           5.8793   44.6076    8.3707 F       1  UNL1       -0.2040
     26 C          14.1812   37.3924    9.8112 C.2     1  UNL1        0.3623
     27 O          14.3703   37.3269    8.5640 O.2     1  UNL1       -0.2457
     28 O          14.0427   36.2236   10.5635 O.3     1  UNL1       -0.4458
     29 C          11.7118   35.7356   10.8160 C.3     1  UNL1        0.0513
     30 C          13.0428   35.2586   10.2750 C.3     1  UNL1        0.2087
@<TRIPOS>BOND
     1    29    30    1
     2    30    28    1
     3    26    28    1
     4     1    26    1
     5     1     2    1
     6     1    10    1
     7     1     9    1
     8     3    10    1
     9     4     5   ar
    10     5    16    1
    11    14    18    1
    12    19    20   ar
    13    20    24    1
    14    21    22   ar
    15    23    25    1
    16    23    18   ar
    17     6     7   ar
    18     8    12    1
    19     8     3   ar
    20    16    14   am
    21    12     9   am
    22    26    27    2
    23     3     4   ar
    24     5     6   ar
    25    14    15    2
    26    18    19   ar
    27    20    21   ar
    28    22    23   ar
    29     7     8   ar
    30     9    11    2
    31    16    17    1
    32    12    13    1
@<TRIPOS>MOLECULE
MolPort-035-706-982 CSSS03437789237 MCULE-1941433661 PubChem-91938307
 30 32 0 0 0
SMALL
GASTEIGER

@<TRIPOS>ATOM
      1 C          14.3132   38.6921   10.5343 C.3     1  UNL1        0.2880
      2 C          15.0434   38.6096   11.8674 C.3     1  UNL1        0.0650
      3 C          12.2264   40.0636   10.2277 C.ar    1  UNL1        0.1542
      4 C          10.8662   40.2186   10.5103 C.ar    1  UNL1        0.0529
      5 C          10.1351   41.2622    9.9318 C.ar    1  UNL1        0.0537
      6 C          10.7829   42.1557    9.0646 C.ar    1  UNL1        0.0162
      7 C          12.1434   42.0059    8.7822 C.ar    1  UNL1        0.0190
      8 C          12.8632   40.9598    9.3636 C.ar    1  UNL1        0.0850
      9 C          14.9937   39.7311    9.6658 C.2     1  UNL1        0.2732
     10 O          12.9417   39.0148   10.8156 O.3     1  UNL1       -0.4618
     11 O          16.2269   39.6397    9.4205 O.2     1  UNL1       -0.2704
     12 N          14.2513   40.8075    9.0928 N.am    1  UNL1       -0.2783
     13 H          14.7055   41.4520    8.5032 H       1  UNL1        0.1551
     14 C           7.7096   41.9260    9.4083 C.2     1  UNL1        0.2518
     15 O           7.9902   42.3612    8.2581 O.2     1  UNL1       -0.2697
     16 N           8.7413   41.3836   10.2466 N.am    1  UNL1       -0.2802
     17 H           8.4617   41.0601   11.1334 H       1  UNL1        0.1552
     18 C           6.3072   41.9807    9.8833 C.ar    1  UNL1        0.0833
     19 C           5.3422   42.6081    9.0787 C.ar    1  UNL1        0.0364
     20 C           4.0086   42.6829    9.4868 C.ar    1  UNL1        0.1404
     21 C           3.6212   42.1300   10.7077 C.ar    1  UNL1        0.0319
     22 C           4.5673   41.5028   11.5198 C.ar    1  UNL1        0.0321
     23 C           5.9046   41.4241   11.1177 C.ar    1  UNL1        0.1446
     24 F           3.0918   43.2919    8.6973 F       1  UNL1       -0.2042
     25 F           6.7884   40.8054   11.9392 F       1  UNL1       -0.2040
     26 C          14.3632   37.3597    9.8373 C.2     1  UNL1        0.3623
     27 O          14.5501   37.3008    8.5895 O.2     1  UNL1       -0.2457
     28 O          14.1385   36.1922   10.5704 O.3     1  UNL1       -0.4458
     29 C          11.7797   35.8119   10.7341 C.3     1  UNL1        0.0513
     30 C          13.1051   35.2799   10.2321 C.3     1  UNL1        0.2087
@<TRIPOS>BOND
     1    29    30    1
     2    30    28    1
     3    26    28    1
     4     1    26    1
     5     1     2    1
     6     1    10    1
     7     1     9    1
     8     3    10    1
     9     4     5   ar
    10     5    16    1
    11    14    18    1
    12    19    20   ar
    13    20    24    1
    14    21    22   ar
    15    23    25    1
    16    23    18   ar
    17     6     7   ar
    18     8    12    1
    19     8     3   ar
    20    16    14   am
    21    12     9   am
    22    26    27    2
    23     3     4   ar
    24     5     6   ar
    25    14    15    2
    26    18    19   ar
    27    20    21   ar
    28    22    23   ar
    29     7     8   ar
    30     9    11    2
    31    16    17    1
    32    12    13    1
@<TRIPOS>MOLECULE
MolPort-035-706-982 CSSS03437789237 MCULE-1941433661 PubChem-91938307
 30 32 0 0 0
SMALL
GASTEIGER

@<TRIPOS>ATOM
      1 C          13.4667   39.5884    9.0844 C.3     1  UNL1        0.2880
      2 C          13.5524   38.2481    8.3679 C.3     1  UNL1        0.0650
      3 C          11.2886   40.5264    9.9244 C.ar    1  UNL1        0.1542
      4 C          10.0465   41.0851    9.6091 C.ar    1  UNL1        0.0529
      5 C           9.1885   41.5264   10.6226 C.ar    1  UNL1        0.0537
      6 C           9.5867   41.4001   11.9626 C.ar    1  UNL1        0.0162
      7 C          10.8263   40.8391   12.2819 C.ar    1  UNL1        0.0190
      8 C          11.6757   40.4035   11.2624 C.ar    1  UNL1        0.0850
      9 C          13.8188   39.3873   10.5448 C.2     1  UNL1        0.2732
     10 O          12.1334   40.0901    8.8981 O.3     1  UNL1       -0.4618
     11 O          14.9161   38.8541   10.8624 O.2     1  UNL1       -0.2704
     12 N          12.9335   39.8188   11.5783 N.am    1  UNL1       -0.2783
     13 H          13.1965   39.7104   12.5208 H       1  UNL1        0.1551
     14 C           7.5410   42.5882    8.9625 C.2     1  UNL1        0.2518
     15 O           8.3559   42.5464    8.0004 O.2     1  UNL1       -0.2697
     16 N           7.9245   42.0956   10.2554 N.am    1  UNL1       -0.2802
     17 H           7.2464   42.1550   10.9667 H       1  UNL1        0.1552
     18 C           6.1875   43.1497    8.7438 C.ar    1  UNL1        0.0833
     19 C           5.1077   42.6201    9.4689 C.ar    1  UNL1        0.0364
     20 C           3.8148   43.1188    9.2947 C.ar    1  UNL1        0.1404
     21 C           3.5838   44.1563    8.3910 C.ar    1  UNL1        0.0319
     22 C           4.6454   44.6944    7.6619 C.ar    1  UNL1        0.0321
     23 C           5.9429   44.2000    7.8312 C.ar    1  UNL1        0.1446
     24 F           2.7858   42.5954   10.0031 F       1  UNL1       -0.2042
     25 F           6.9429   44.7535    7.1015 F       1  UNL1       -0.2040
     26 C          14.4388   40.5610    8.4740 C.2     1  UNL1        0.3623
     27 O          15.6419   40.5842    8.8581 O.2     1  UNL1       -0.2457
     28 O          13.9860   41.4804    7.5248 O.3     1  UNL1       -0.4458
     29 C          14.0334   43.3632    6.0457 C.3     1  UNL1        0.0513
     30 C          14.8011   42.5466    7.0633 C.3     1  UNL1        0.2087
@<TRIPOS>BOND
     1    29    30    1
     2    30    28    1
     3    26    28    1
     4     1    26    1
     5     1     2    1
     6     1    10    1
     7     1     9    1
     8     3    10    1
     9     4     5   ar
    10     5    16    1
    11    14    18    1
    12    19    20   ar
    13    20    24    1
    14    21    22   ar
    15    23    25    1
    16    23    18   ar
    17     6     7   ar
    18     8    12    1
    19     8     3   ar
    20    16    14   am
    21    12     9   am
    22    26    27    2
    23     3     4   ar
    24     5     6   ar
    25    14    15    2
    26    18    19   ar
    27    20    21   ar
    28    22    23   ar
    29     7     8   ar
    30     9    11    2
    31    16    17    1
    32    12    13    1
@<TRIPOS>MOLECULE
MolPort-035-706-982 CSSS03437789237 MCULE-1941433661 PubChem-91938307
 30 32 0 0 0
SMALL
GASTEIGER

@<TRIPOS>ATOM
      1 C           6.9084   42.1404    9.2021 C.3     1  UNL1        0.2880
      2 C           6.3853   41.7386   10.5739 C.3     1  UNL1        0.0650
      3 C           9.2717   41.6746    8.4758 C.ar    1  UNL1        0.1542
      4 C          10.6297   41.9722    8.6221 C.ar    1  UNL1        0.0529
      5 C          11.5824   41.3678    7.7943 C.ar    1  UNL1        0.0537
      6 C          11.1607   40.4553    6.8147 C.ar    1  UNL1        0.0162
      7 C           9.8042   40.1528    6.6676 C.ar    1  UNL1        0.0190
      8 C           8.8616   40.7631    7.4979 C.ar    1  UNL1        0.0850
      9 C           6.5050   41.0826    8.1943 C.2     1  UNL1        0.2732
     10 O           8.3332   42.2881    9.3126 O.3     1  UNL1       -0.4618
     11 O           5.2920   40.7657    8.0625 O.2     1  UNL1       -0.2704
     12 N           7.4801   40.4511    7.3646 N.am    1  UNL1       -0.2783
     13 H           7.1931   39.7918    6.6921 H       1  UNL1        0.1551
     14 C          13.7820   42.5032    7.1085 C.2     1  UNL1        0.2518
     15 O          13.2949   42.9953    6.0541 O.2     1  UNL1       -0.2697
     16 N          12.9648   41.7031    7.9765 N.am    1  UNL1       -0.2802
     17 H          13.4005   41.3461    8.7839 H       1  UNL1        0.1552
     18 C          15.2031   42.7594    7.4403 C.ar    1  UNL1        0.0833
     19 C          15.9067   41.8058    8.1939 C.ar    1  UNL1        0.0364
     20 C          17.2475   42.0060    8.5297 C.ar    1  UNL1        0.1404
     21 C          17.9043   43.1651    8.1154 C.ar    1  UNL1        0.0319
     22 C          17.2202   44.1233    7.3658 C.ar    1  UNL1        0.0321
     23 C          15.8773   43.9296    7.0258 C.ar    1  UNL1        0.1446
     24 F          17.9098   41.0750    9.2572 F       1  UNL1       -0.2042
     25 F          15.2535   44.8875    6.2964 F       1  UNL1       -0.2040
     26 C           6.3158   43.4611    8.7922 C.2     1  UNL1        0.3623
     27 O           6.9221   44.2027    7.9689 O.2     1  UNL1       -0.2457
     28 O           5.1216   43.8891    9.3769 O.3     1  UNL1       -0.4458
     29 C           3.8227   44.9755    7.6835 C.3     1  UNL1        0.0513
     30 C           3.8850   43.8395    8.6822 C.3     1  UNL1        0.2087
@<TRIPOS>BOND
     1    29    30    1
     2    30    28    1
     3    26    28    1
     4     1    26    1
     5     1     2    1
     6     1    10    1
     7     1     9    1
     8     3    10    1
     9     4     5   ar
    10     5    16    1
    11    14    18    1
    12    19    20   ar
    13    20    24    1
    14    21    22   ar
    15    23    25    1
    16    23    18   ar
    17     6     7   ar
    18     8    12    1
    19     8     3   ar
    20    16    14   am
    21    12     9   am
    22    26    27    2
    23     3     4   ar
    24     5     6   ar
    25    14    15    2
    26    18    19   ar
    27    20    21   ar
    28    22    23   ar
    29     7     8   ar
    30     9    11    2
    31    16    17    1
    32    12    13    1
@<TRIPOS>MOLECULE
MolPort-035-706-982 CSSS03437789237 MCULE-1941433661 PubChem-91938307
 30 32 0 0 0
SMALL
GASTEIGER

@<TRIPOS>ATOM
      1 C          14.2281   38.6818   10.4007 C.3     1  UNL1        0.2880
      2 C          14.7543   38.6198   11.8277 C.3     1  UNL1        0.0650
      3 C          12.4856   40.3483    9.6822 C.ar    1  UNL1        0.1542
      4 C          11.1524   40.7628    9.7509 C.ar    1  UNL1        0.0529
      5 C          10.7056   41.8474    8.9879 C.ar    1  UNL1        0.0537
      6 C          11.6120   42.5188    8.1525 C.ar    1  UNL1        0.0162
      7 C          12.9466   42.1094    8.0836 C.ar    1  UNL1        0.0190
      8 C          13.3814   41.0245    8.8481 C.ar    1  UNL1        0.0850
      9 C          15.1934   39.4899    9.5567 C.2     1  UNL1        0.2732
     10 O          12.9149   39.2622   10.4525 O.3     1  UNL1       -0.4618
     11 O          16.4098   39.1635    9.5011 O.2     1  UNL1       -0.2704
     12 N          14.7409   40.6092    8.7948 N.am    1  UNL1       -0.2783
     13 H          15.3774   41.0996    8.2258 H       1  UNL1        0.1551
     14 C           8.3873   42.3642    8.0102 C.2     1  UNL1        0.2518
     15 O           8.7422   42.1206    6.8245 O.2     1  UNL1       -0.2697
     16 N           9.3293   42.2381    9.0863 N.am    1  UNL1       -0.2802
     17 H           8.9942   42.4419    9.9893 H       1  UNL1        0.1552
     18 C           6.9911   42.7808    8.2791 C.ar    1  UNL1        0.0833
     19 C           6.5387   44.0083    7.7683 C.ar    1  UNL1        0.0364
     20 C           5.2306   44.4408    7.9972 C.ar    1  UNL1        0.1404
     21 C           4.3553   43.6497    8.7418 C.ar    1  UNL1        0.0319
     22 C           4.7882   42.4270    9.2571 C.ar    1  UNL1        0.0321
     23 C           6.0969   41.9874    9.0318 C.ar    1  UNL1        0.1446
     24 F           4.8122   45.6277    7.4964 F       1  UNL1       -0.2042
     25 F           6.4731   40.7929    9.5518 F       1  UNL1       -0.2040
     26 C          14.1209   37.2934    9.8313 C.2     1  UNL1        0.3623
     27 O          14.1896   37.1101    8.5835 O.2     1  UNL1       -0.2457
     28 O          13.8816   36.2163   10.6880 O.3     1  UNL1       -0.4458
     29 C          11.4907   36.2633   10.5599 C.3     1  UNL1        0.0513
     30 C          12.7310   35.3954   10.5593 C.3     1  UNL1        0.2087
@<TRIPOS>BOND
     1    29    30    1
     2    30    28    1
     3    26    28    1
     4     1    26    1
     5     1     2    1
     6     1    10    1
     7     1     9    1
     8     3    10    1
     9     4     5   ar
    10     5    16    1
    11    14    18    1
    12    19    20   ar
    13    20    24    1
    14    21    22   ar
    15    23    25    1
    16    23    18   ar
    17     6     7   ar
    18     8    12    1
    19     8     3   ar
    20    16    14   am
    21    12     9   am
    22    26    27    2
    23     3     4   ar
    24     5     6   ar
    25    14    15    2
    26    18    19   ar
    27    20    21   ar
    28    22    23   ar
    29     7     8   ar
    30     9    11    2
    31    16    17    1
    32    12    13    1
@<TRIPOS>MOLECULE
MolPort-035-706-982 CSSS03437789237 MCULE-1941433661 PubChem-91938307
 30 32 0 0 0
SMALL
GASTEIGER

@<TRIPOS>ATOM
      1 C           6.7235   42.9131    8.1421 C.3     1  UNL1        0.2880
      2 C           6.3188   43.3319    6.7357 C.3     1  UNL1        0.0650
      3 C           8.8896   41.7260    8.6199 C.ar    1  UNL1        0.1542
      4 C           9.6417   40.5536    8.5019 C.ar    1  UNL1        0.0529
      5 C          10.9035   40.4562    9.0990 C.ar    1  UNL1        0.0537
      6 C          11.4094   41.5508    9.8174 C.ar    1  UNL1        0.0162
      7 C          10.6619   42.7258    9.9348 C.ar    1  UNL1        0.0190
      8 C           9.4029   42.8117    9.3364 C.ar    1  UNL1        0.0850
      9 C           7.3444   44.1019    8.8482 C.2     1  UNL1        0.2732
     10 O           7.6302   41.8059    8.0160 O.3     1  UNL1       -0.4618
     11 O           6.7064   45.1852    8.9411 O.2     1  UNL1       -0.2704
     12 N           8.6406   44.0083    9.4391 N.am    1  UNL1       -0.2783
     13 H           9.0113   44.7812    9.9233 H       1  UNL1        0.1551
     14 C          12.5387   38.6493    9.9107 C.2     1  UNL1        0.2518
     15 O          12.7483   39.2193   11.0164 O.2     1  UNL1       -0.2697
     16 N          11.6407   39.2345    8.9555 N.am    1  UNL1       -0.2802
     17 H          11.5177   38.7441    8.1108 H       1  UNL1        0.1552
     18 C          13.2279   37.3727    9.6097 C.ar    1  UNL1        0.0833
     19 C          14.4297   37.4050    8.8839 C.ar    1  UNL1        0.0364
     20 C          15.1131   36.2261    8.5776 C.ar    1  UNL1        0.1404
     21 C          14.6026   34.9962    8.9940 C.ar    1  UNL1        0.0319
     22 C          13.4093   34.9458    9.7162 C.ar    1  UNL1        0.0321
     23 C          12.7195   36.1223   10.0266 C.ar    1  UNL1        0.1446
     24 F          16.2710   36.2769    7.8767 F       1  UNL1       -0.2042
     25 F          11.5643   36.0246   10.7300 F       1  UNL1       -0.2040
     26 C           5.5128   42.4612    8.9125 C.2     1  UNL1        0.3623
     27 O           4.4273   43.1012    8.8251 O.2     1  UNL1       -0.2457
     28 O           5.6160   41.3663    9.7737 O.3     1  UNL1       -0.4458
     29 C           4.1532   40.4025   11.4067 C.3     1  UNL1        0.0513
     30 C           5.2204   41.4412   11.1347 C.3     1  UNL1        0.2087
@<TRIPOS>BOND
     1    29    30    1
     2    30    28    1
     3    26    28    1
     4     1    26    1
     5     1     2    1
     6     1    10    1
     7     1     9    1
     8     3    10    1
     9     4     5   ar
    10     5    16    1
    11    14    18    1
    12    19    20   ar
    13    20    24    1
    14    21    22   ar
    15    23    25    1
    16    23    18   ar
    17     6     7   ar
    18     8    12    1
    19     8     3   ar
    20    16    14   am
    21    12     9   am
    22    26    27    2
    23     3     4   ar
    24     5     6   ar
    25    14    15    2
    26    18    19   ar
    27    20    21   ar
    28    22    23   ar
    29     7     8   ar
    30     9    11    2
    31    16    17    1
    32    12    13    1
