@<TRIPOS>MOLECULE
MolPort-028-889-943 ChemDiv-V030-3041 MCULE-3455100685 PubChem-83287203 ZINC000096276482 ZINC96276482
 33 36 0 0 0
SMALL
GASTEIGER

@<TRIPOS>ATOM
      1 C           9.9461   41.1964    8.3246 C.ar    1  UNL1        0.1142
      2 C          10.5247   41.8947    7.2601 C.ar    1  UNL1        0.0233
      3 C          11.8756   41.8693    7.5436 C.ar    1  UNL1        0.0186
      4 C          12.9408   42.4053    6.8258 C.ar    1  UNL1        0.0162
      5 C          14.2440   42.2299    7.3387 C.ar    1  UNL1        0.0504
      6 C          14.4309   41.5267    8.5493 C.ar    1  UNL1        0.0162
      7 C          13.3368   40.9953    9.2538 C.ar    1  UNL1        0.0185
      8 C          12.0651   41.1890    8.7153 C.ar    1  UNL1        0.0603
      9 N          10.8882   40.7717    9.2083 N.ar    1  UNL1       -0.3194
     10 C           8.4939   40.9679    8.4539 C.2     1  UNL1        0.2618
     11 O           7.8748   40.2869    7.5926 O.2     1  UNL1       -0.2686
     12 N           7.7880   41.5239    9.5677 N.am    1  UNL1       -0.2973
     13 H           8.2872   42.0766   10.2117 H       1  UNL1        0.1499
     14 C           6.3645   41.3096    9.7923 C.3     1  UNL1        0.1219
     15 C           6.0321   41.4269   11.2711 C.3     1  UNL1        0.1634
     16 C           3.9861   40.6325   11.4874 C.3     1  UNL1        0.1742
     17 O           4.7048   41.8255   11.4300 O.3     1  UNL1       -0.3493
     18 C          15.5859   44.0974    6.2022 C.2     1  UNL1        0.2256
     19 O          14.6704   44.9570    6.3129 O.2     1  UNL1       -0.2748
     20 N          15.3973   42.7525    6.6654 N.am    1  UNL1       -0.2839
     21 H          16.1367   42.1229    6.5040 H       1  UNL1        0.1549
     22 C          16.8668   44.4698    5.5291 C.3     1  UNL1        0.0768
     23 C          17.8385   43.3048    5.5844 C.3     1  UNL1        0.0096
     24 C          18.0018   44.4667    6.5374 C.3     1  UNL1        0.0096
     25 C          10.6883   39.9689   10.4123 C.3     1  UNL1        0.1325
     26 C          11.6199   38.7955   10.4231 C.ar    1  UNL1       -0.0039
     27 C          11.3235   37.6185    9.7082 C.ar    1  UNL1       -0.0240
     28 C          10.0811   37.4917    8.8934 C.3     1  UNL1        0.0308
     29 C          12.2121   36.5389    9.7484 C.ar    1  UNL1       -0.0048
     30 C          13.3918   36.6238   10.4923 C.ar    1  UNL1       -0.0046
     31 C          13.6895   37.7913   11.1986 C.ar    1  UNL1       -0.0221
     32 C          14.9443   37.8829   11.9891 C.3     1  UNL1        0.0310
     33 C          12.8067   38.8731   11.1631 C.ar    1  UNL1       -0.0070
@<TRIPOS>BOND
     1    16    17    1
     2    15    17    1
     3    15    14    1
     4    14    12    1
     5    10     1    1
     6     2     3   ar
     7     4     5   ar
     8     5    20    1
     9    22    18    1
    10    22    23    1
    11    23    24    1
    12    24    22    1
    13     6     7   ar
    14     8     9   ar
    15     8     3   ar
    16    25     9    1
    17    25    26    1
    18    27    29   ar
    19    28    27    1
    20    30    31   ar
    21    32    31    1
    22    33    26   ar
    23    12    10   am
    24    20    18   am
    25     9     1   ar
    26    10    11    2
    27     1     2   ar
    28     3     4   ar
    29     5     6   ar
    30    18    19    2
    31     7     8   ar
    32    26    27   ar
    33    29    30   ar
    34    31    33   ar
    35    12    13    1
    36    20    21    1
@<TRIPOS>MOLECULE
MolPort-028-889-943 ChemDiv-V030-3041 MCULE-3455100685 PubChem-83287203 ZINC000096276482 ZINC96276482
 33 36 0 0 0
SMALL
GASTEIGER

@<TRIPOS>ATOM
      1 C          13.4302   37.2742    9.3446 C.ar    1  UNL1        0.1142
      2 C          14.7036   37.8481    9.4119 C.ar    1  UNL1        0.0233
      3 C          14.5119   39.1332    8.9456 C.ar    1  UNL1        0.0186
      4 C          15.4322   40.1665    8.7949 C.ar    1  UNL1        0.0162
      5 C          14.9685   41.4030    8.2967 C.ar    1  UNL1        0.0504
      6 C          13.6035   41.5576    7.9680 C.ar    1  UNL1        0.0162
      7 C          12.6955   40.4971    8.1305 C.ar    1  UNL1        0.0185
      8 C          13.1913   39.2912    8.6253 C.ar    1  UNL1        0.0603
      9 N          12.5145   38.1564    8.8628 N.ar    1  UNL1       -0.3194
     10 C          13.1425   35.8833    9.7454 C.2     1  UNL1        0.2618
     11 O          12.2725   35.6382   10.6240 O.2     1  UNL1       -0.2686
     12 N          13.8577   34.8083    9.1283 N.am    1  UNL1       -0.2973
     13 H          14.5530   35.0258    8.4661 H       1  UNL1        0.1499
     14 C          13.6039   33.4068    9.4352 C.3     1  UNL1        0.1219
     15 C          14.1132   32.5130    8.3159 C.3     1  UNL1        0.1634
     16 C          15.9207   31.3417    8.7905 C.3     1  UNL1        0.1742
     17 O          14.5286   31.2876    8.8375 O.3     1  UNL1       -0.3493
     18 C          15.8689   43.4175    6.9885 C.2     1  UNL1        0.2256
     19 O          15.1001   43.2464    6.0042 O.2     1  UNL1       -0.2748
     20 N          15.8491   42.5189    8.1070 N.am    1  UNL1       -0.2839
     21 H          16.5089   42.6857    8.8183 H       1  UNL1        0.1549
     22 C          16.8536   44.5410    6.9660 C.3     1  UNL1        0.0768
     23 C          18.0064   44.2006    6.0388 C.3     1  UNL1        0.0096
     24 C          18.1824   44.0767    7.5350 C.3     1  UNL1        0.0096
     25 C          11.0776   37.9528    8.6956 C.3     1  UNL1        0.1325
     26 C          10.3230   39.1900    9.0764 C.ar    1  UNL1       -0.0039
     27 C           9.4284   39.8070    8.1803 C.ar    1  UNL1       -0.0240
     28 C           9.1759   39.2491    6.8207 C.3     1  UNL1        0.0308
     29 C           8.7477   40.9665    8.5664 C.ar    1  UNL1       -0.0048
     30 C           8.9500   41.5133    9.8361 C.ar    1  UNL1       -0.0046
     31 C           9.8336   40.9008   10.7276 C.ar    1  UNL1       -0.0221
     32 C          10.0484   41.4810   12.0785 C.3     1  UNL1        0.0310
     33 C          10.5167   39.7430   10.3487 C.ar    1  UNL1       -0.0070
@<TRIPOS>BOND
     1    16    17    1
     2    15    17    1
     3    15    14    1
     4    14    12    1
     5    10     1    1
     6     2     3   ar
     7     4     5   ar
     8     5    20    1
     9    22    18    1
    10    22    23    1
    11    23    24    1
    12    24    22    1
    13     6     7   ar
    14     8     9   ar
    15     8     3   ar
    16    25     9    1
    17    25    26    1
    18    27    29   ar
    19    28    27    1
    20    30    31   ar
    21    32    31    1
    22    33    26   ar
    23    12    10   am
    24    20    18   am
    25     9     1   ar
    26    10    11    2
    27     1     2   ar
    28     3     4   ar
    29     5     6   ar
    30    18    19    2
    31     7     8   ar
    32    26    27   ar
    33    29    30   ar
    34    31    33   ar
    35    12    13    1
    36    20    21    1
@<TRIPOS>MOLECULE
MolPort-028-889-943 ChemDiv-V030-3041 MCULE-3455100685 PubChem-83287203 ZINC000096276482 ZINC96276482
 33 36 0 0 0
SMALL
GASTEIGER

@<TRIPOS>ATOM
      1 C          12.7347   42.0629    7.8142 C.ar    1  UNL1        0.1142
      2 C          11.7598   42.9433    8.2934 C.ar    1  UNL1        0.0233
      3 C          10.8624   42.1205    8.9440 C.ar    1  UNL1        0.0186
      4 C           9.6909   42.4481    9.6204 C.ar    1  UNL1        0.0162
      5 C           8.9499   41.4027   10.2124 C.ar    1  UNL1        0.0504
      6 C           9.4085   40.0712   10.1039 C.ar    1  UNL1        0.0162
      7 C          10.5957   39.7686    9.4149 C.ar    1  UNL1        0.0185
      8 C          11.3001   40.8282    8.8438 C.ar    1  UNL1        0.0603
      9 N          12.4482   40.7767    8.1500 N.ar    1  UNL1       -0.3194
     10 C          13.9130   42.4973    7.0390 C.2     1  UNL1        0.2618
     11 O          15.0583   42.0459    7.3100 O.2     1  UNL1       -0.2686
     12 N          13.7490   43.4368    5.9720 N.am    1  UNL1       -0.2973
     13 H          12.8497   43.7977    5.7980 H       1  UNL1        0.1499
     14 C          14.8520   43.8836    5.1314 C.3     1  UNL1        0.1219
     15 C          15.7624   44.8278    5.8999 C.3     1  UNL1        0.1634
     16 C          17.6086   44.1327    6.8862 C.3     1  UNL1        0.1742
     17 O          17.0975   44.5127    5.6462 O.3     1  UNL1       -0.3493
     18 C           6.3955   41.4320   10.4453 C.2     1  UNL1        0.2256
     19 O           6.1854   41.0313    9.2687 O.2     1  UNL1       -0.2748
     20 N           7.7302   41.6509   10.9245 N.am    1  UNL1       -0.2839
     21 H           7.8177   42.0089   11.8375 H       1  UNL1        0.1549
     22 C           5.2357   41.7359   11.3368 C.3     1  UNL1        0.0768
     23 C           4.0125   40.9635   10.8765 C.3     1  UNL1        0.0096
     24 C           4.1430   42.4326   10.5460 C.3     1  UNL1        0.0096
     25 C          13.2456   39.5827    7.8807 C.3     1  UNL1        0.1325
     26 C          13.4356   38.7832    9.1335 C.ar    1  UNL1       -0.0039
     27 C          14.4284   39.1204   10.0740 C.ar    1  UNL1       -0.0240
     28 C          15.3226   40.2975    9.8775 C.3     1  UNL1        0.0308
     29 C          14.5835   38.3458   11.2285 C.ar    1  UNL1       -0.0048
     30 C          13.7576   37.2414   11.4530 C.ar    1  UNL1       -0.0046
     31 C          12.7699   36.9076   10.5236 C.ar    1  UNL1       -0.0221
     32 C          11.8904   35.7340   10.7621 C.3     1  UNL1        0.0310
     33 C          12.6095   37.6766    9.3687 C.ar    1  UNL1       -0.0070
@<TRIPOS>BOND
     1    16    17    1
     2    15    17    1
     3    15    14    1
     4    14    12    1
     5    10     1    1
     6     2     3   ar
     7     4     5   ar
     8     5    20    1
     9    22    18    1
    10    22    23    1
    11    23    24    1
    12    24    22    1
    13     6     7   ar
    14     8     9   ar
    15     8     3   ar
    16    25     9    1
    17    25    26    1
    18    27    29   ar
    19    28    27    1
    20    30    31   ar
    21    32    31    1
    22    33    26   ar
    23    12    10   am
    24    20    18   am
    25     9     1   ar
    26    10    11    2
    27     1     2   ar
    28     3     4   ar
    29     5     6   ar
    30    18    19    2
    31     7     8   ar
    32    26    27   ar
    33    29    30   ar
    34    31    33   ar
    35    12    13    1
    36    20    21    1
@<TRIPOS>MOLECULE
MolPort-028-889-943 ChemDiv-V030-3041 MCULE-3455100685 PubChem-83287203 ZINC000096276482 ZINC96276482
 33 36 0 0 0
SMALL
GASTEIGER

@<TRIPOS>ATOM
      1 C           9.8343   40.8071    6.8946 C.ar    1  UNL1        0.1142
      2 C          10.5300   41.7564    6.1395 C.ar    1  UNL1        0.0233
      3 C          11.8155   41.6987    6.6393 C.ar    1  UNL1        0.0186
      4 C          12.9448   42.4196    6.2624 C.ar    1  UNL1        0.0162
      5 C          14.1563   42.1598    6.9385 C.ar    1  UNL1        0.0504
      6 C          14.1909   41.1904    7.9652 C.ar    1  UNL1        0.0162
      7 C          13.0350   40.4764    8.3253 C.ar    1  UNL1        0.0185
      8 C          11.8574   40.7609    7.6345 C.ar    1  UNL1        0.0603
      9 N          10.6468   40.2064    7.8046 N.ar    1  UNL1       -0.3194
     10 C           8.3989   40.5162    6.7130 C.2     1  UNL1        0.2618
     11 O           7.9930   39.9222    5.6780 O.2     1  UNL1       -0.2686
     12 N           7.4650   40.9117    7.7227 N.am    1  UNL1       -0.2973
     13 H           7.8016   41.4002    8.5084 H       1  UNL1        0.1499
     14 C           6.0389   40.6246    7.6410 C.3     1  UNL1        0.1219
     15 C           5.3006   41.2399    8.8188 C.3     1  UNL1        0.1634
     16 C           5.2442   41.1905   11.0230 C.3     1  UNL1        0.1742
     17 O           6.1249   41.2498    9.9442 O.3     1  UNL1       -0.3493
     18 C          15.4904   44.2463    6.2702 C.2     1  UNL1        0.2256
     19 O          14.4731   44.9833    6.1649 O.2     1  UNL1       -0.2748
     20 N          15.3660   42.8594    6.6163 N.am    1  UNL1       -0.2839
     21 H          16.1979   42.3332    6.6345 H       1  UNL1        0.1549
     22 C          16.8418   44.8120    5.9768 C.3     1  UNL1        0.0768
     23 C          17.7888   43.7011    5.5600 C.3     1  UNL1        0.0096
     24 C          17.8583   44.2628    6.9616 C.3     1  UNL1        0.0096
     25 C          10.3083   39.1319    8.7346 C.3     1  UNL1        0.1325
     26 C          11.4556   38.8535    9.6571 C.ar    1  UNL1       -0.0039
     27 C          11.7211   39.6805   10.7659 C.ar    1  UNL1       -0.0240
     28 C          10.8638   40.8583   11.0847 C.3     1  UNL1        0.0308
     29 C          12.8067   39.3958   11.6009 C.ar    1  UNL1       -0.0048
     30 C          13.6266   38.2948   11.3409 C.ar    1  UNL1       -0.0046
     31 C          13.3628   37.4711   10.2442 C.ar    1  UNL1       -0.0221
     32 C          14.2335   36.2994    9.9675 C.3     1  UNL1        0.0310
     33 C          12.2806   37.7496    9.4062 C.ar    1  UNL1       -0.0070
@<TRIPOS>BOND
     1    16    17    1
     2    15    17    1
     3    15    14    1
     4    14    12    1
     5    10     1    1
     6     2     3   ar
     7     4     5   ar
     8     5    20    1
     9    22    18    1
    10    22    23    1
    11    23    24    1
    12    24    22    1
    13     6     7   ar
    14     8     9   ar
    15     8     3   ar
    16    25     9    1
    17    25    26    1
    18    27    29   ar
    19    28    27    1
    20    30    31   ar
    21    32    31    1
    22    33    26   ar
    23    12    10   am
    24    20    18   am
    25     9     1   ar
    26    10    11    2
    27     1     2   ar
    28     3     4   ar
    29     5     6   ar
    30    18    19    2
    31     7     8   ar
    32    26    27   ar
    33    29    30   ar
    34    31    33   ar
    35    12    13    1
    36    20    21    1
@<TRIPOS>MOLECULE
MolPort-028-889-943 ChemDiv-V030-3041 MCULE-3455100685 PubChem-83287203 ZINC000096276482 ZINC96276482
 33 36 0 0 0
SMALL
GASTEIGER

@<TRIPOS>ATOM
      1 C          13.5341   39.7769   10.6884 C.ar    1  UNL1        0.1142
      2 C          12.3642   40.1124   11.3770 C.ar    1  UNL1        0.0233
      3 C          11.6406   40.8483   10.4601 C.ar    1  UNL1        0.0186
      4 C          10.3873   41.4394   10.5911 C.ar    1  UNL1        0.0162
      5 C           9.8628   42.1392    9.4832 C.ar    1  UNL1        0.0504
      6 C          10.6120   42.2215    8.2887 C.ar    1  UNL1        0.0162
      7 C          11.8755   41.6146    8.1838 C.ar    1  UNL1        0.0185
      8 C          12.3598   40.9321    9.2994 C.ar    1  UNL1        0.0603
      9 N          13.5268   40.2807    9.4255 N.ar    1  UNL1       -0.3194
     10 C          14.6269   38.9813   11.2807 C.2     1  UNL1        0.2618
     11 O          14.8101   38.9756   12.5278 O.2     1  UNL1       -0.2686
     12 N          15.4811   38.2110   10.4292 N.am    1  UNL1       -0.2973
     13 H          15.3371   38.2542    9.4563 H       1  UNL1        0.1499
     14 C          16.5541   37.3657   10.9364 C.3     1  UNL1        0.1219
     15 C          17.4031   36.8344    9.7928 C.3     1  UNL1        0.1634
     16 C          16.8874   35.6222    8.0240 C.3     1  UNL1        0.1742
     17 O          16.6757   36.8723    8.6030 O.3     1  UNL1       -0.3493
     18 C           7.3454   42.2737    9.0093 C.2     1  UNL1        0.2256
     19 O           7.3060   41.1825    8.3792 O.2     1  UNL1       -0.2748
     20 N           8.5812   42.7808    9.5332 N.am    1  UNL1       -0.2839
     21 H           8.5455   43.6609    9.9728 H       1  UNL1        0.1549
     22 C           6.0960   43.0780    9.1656 C.3     1  UNL1        0.0768
     23 C           5.4901   43.3635    7.8033 C.3     1  UNL1        0.0096
     24 C           6.2726   44.4404    8.5194 C.3     1  UNL1        0.0096
     25 C          14.5373   40.1033    8.3855 C.3     1  UNL1        0.1325
     26 C          15.1869   41.4122    8.0541 C.ar    1  UNL1       -0.0039
     27 C          16.4129   41.7894    8.6361 C.ar    1  UNL1       -0.0240
     28 C          17.1303   40.8982    9.5925 C.3     1  UNL1        0.0308
     29 C          16.9859   43.0233    8.3105 C.ar    1  UNL1       -0.0048
     30 C          16.3489   43.8811    7.4103 C.ar    1  UNL1       -0.0046
     31 C          15.1351   43.5073    6.8290 C.ar    1  UNL1       -0.0221
     32 C          14.4575   44.4184    5.8707 C.3     1  UNL1        0.0310
     33 C          14.5572   42.2768    7.1497 C.ar    1  UNL1       -0.0070
@<TRIPOS>BOND
     1    16    17    1
     2    15    17    1
     3    15    14    1
     4    14    12    1
     5    10     1    1
     6     2     3   ar
     7     4     5   ar
     8     5    20    1
     9    22    18    1
    10    22    23    1
    11    23    24    1
    12    24    22    1
    13     6     7   ar
    14     8     9   ar
    15     8     3   ar
    16    25     9    1
    17    25    26    1
    18    27    29   ar
    19    28    27    1
    20    30    31   ar
    21    32    31    1
    22    33    26   ar
    23    12    10   am
    24    20    18   am
    25     9     1   ar
    26    10    11    2
    27     1     2   ar
    28     3     4   ar
    29     5     6   ar
    30    18    19    2
    31     7     8   ar
    32    26    27   ar
    33    29    30   ar
    34    31    33   ar
    35    12    13    1
    36    20    21    1
@<TRIPOS>MOLECULE
MolPort-028-889-943 ChemDiv-V030-3041 MCULE-3455100685 PubChem-83287203 ZINC000096276482 ZINC96276482
 33 36 0 0 0
SMALL
GASTEIGER

@<TRIPOS>ATOM
      1 C          14.4565   40.9433    8.7853 C.ar    1  UNL1        0.1142
      2 C          13.5915   41.7051    7.9936 C.ar    1  UNL1        0.0233
      3 C          12.3406   41.2052    8.2954 C.ar    1  UNL1        0.0186
      4 C          11.0938   41.5872    7.8090 C.ar    1  UNL1        0.0162
      5 C           9.9544   40.9096    8.2935 C.ar    1  UNL1        0.0504
      6 C          10.1063   39.8761    9.2443 C.ar    1  UNL1        0.0162
      7 C          11.3780   39.5108    9.7189 C.ar    1  UNL1        0.0185
      8 C          12.4793   40.2034    9.2167 C.ar    1  UNL1        0.0603
      9 N          13.7741   40.0293    9.5255 N.ar    1  UNL1       -0.3194
     10 C          15.9213   41.1226    8.7943 C.2     1  UNL1        0.2618
     11 O          16.6627   40.2965    9.3917 O.2     1  UNL1       -0.2686
     12 N          16.4998   42.2429    8.1174 N.am    1  UNL1       -0.2973
     13 H          15.8990   42.8906    7.6829 H       1  UNL1        0.1499
     14 C          17.9372   42.4689    8.0419 C.3     1  UNL1        0.1219
     15 C          18.2328   43.8993    7.6205 C.3     1  UNL1        0.1634
     16 C          17.3818   44.0289    5.5900 C.3     1  UNL1        0.1742
     17 O          17.1514   44.4184    6.9084 O.3     1  UNL1       -0.3493
     18 C           7.9709   42.5036    7.9700 C.2     1  UNL1        0.2256
     19 O           8.5188   43.4653    8.5735 O.2     1  UNL1       -0.2748
     20 N           8.6328   41.2369    7.8433 N.am    1  UNL1       -0.2839
     21 H           8.1268   40.5173    7.4011 H       1  UNL1        0.1549
     22 C           6.5891   42.6683    7.4260 C.3     1  UNL1        0.0768
     23 C           5.9636   43.9372    7.9766 C.3     1  UNL1        0.0096
     24 C           5.5760   42.5953    8.5543 C.3     1  UNL1        0.0096
     25 C          14.3126   39.0917   10.5079 C.3     1  UNL1        0.1325
     26 C          14.4517   37.7250    9.9098 C.ar    1  UNL1       -0.0039
     27 C          13.5488   36.6914   10.2269 C.ar    1  UNL1       -0.0240
     28 C          12.4033   36.9129   11.1555 C.3     1  UNL1        0.0308
     29 C          13.7146   35.4249    9.6567 C.ar    1  UNL1       -0.0048
     30 C          14.7698   35.1816    8.7737 C.ar    1  UNL1       -0.0046
     31 C          15.6639   36.2061    8.4549 C.ar    1  UNL1       -0.0221
     32 C          16.7857   35.9486    7.5152 C.3     1  UNL1        0.0310
     33 C          15.5044   37.4731    9.0206 C.ar    1  UNL1       -0.0070
@<TRIPOS>BOND
     1    16    17    1
     2    15    17    1
     3    15    14    1
     4    14    12    1
     5    10     1    1
     6     2     3   ar
     7     4     5   ar
     8     5    20    1
     9    22    18    1
    10    22    23    1
    11    23    24    1
    12    24    22    1
    13     6     7   ar
    14     8     9   ar
    15     8     3   ar
    16    25     9    1
    17    25    26    1
    18    27    29   ar
    19    28    27    1
    20    30    31   ar
    21    32    31    1
    22    33    26   ar
    23    12    10   am
    24    20    18   am
    25     9     1   ar
    26    10    11    2
    27     1     2   ar
    28     3     4   ar
    29     5     6   ar
    30    18    19    2
    31     7     8   ar
    32    26    27   ar
    33    29    30   ar
    34    31    33   ar
    35    12    13    1
    36    20    21    1
@<TRIPOS>MOLECULE
MolPort-028-889-943 ChemDiv-V030-3041 MCULE-3455100685 PubChem-83287203 ZINC000096276482 ZINC96276482
 33 36 0 0 0
SMALL
GASTEIGER

@<TRIPOS>ATOM
      1 C           9.9296   40.9487    6.6532 C.ar    1  UNL1        0.1142
      2 C          10.7068   41.7749    5.8355 C.ar    1  UNL1        0.0233
      3 C          11.9466   41.7689    6.4428 C.ar    1  UNL1        0.0186
      4 C          13.1201   42.4152    6.0654 C.ar    1  UNL1        0.0162
      5 C          14.2669   42.2344    6.8682 C.ar    1  UNL1        0.0504
      6 C          14.1952   41.4157    8.0169 C.ar    1  UNL1        0.0162
      7 C          12.9967   40.7743    8.3746 C.ar    1  UNL1        0.0185
      8 C          11.8855   40.9770    7.5567 C.ar    1  UNL1        0.0603
      9 N          10.6516   40.4682    7.7004 N.ar    1  UNL1       -0.3194
     10 C           8.5064   40.6554    6.3953 C.2     1  UNL1        0.2618
     11 O           8.1522   40.1050    5.3180 O.2     1  UNL1       -0.2686
     12 N           7.5252   40.9988    7.3787 N.am    1  UNL1       -0.2973
     13 H           7.8221   41.4544    8.1994 H       1  UNL1        0.1499
     14 C           6.1068   40.7049    7.2212 C.3     1  UNL1        0.1219
     15 C           5.3233   41.1825    8.4331 C.3     1  UNL1        0.1634
     16 C           4.1776   42.9316    9.1348 C.3     1  UNL1        0.1742
     17 O           5.3730   42.5744    8.5132 O.3     1  UNL1       -0.3493
     18 C          15.7226   44.2497    6.2360 C.2     1  UNL1        0.2256
     19 O          14.7515   45.0490    6.1509 O.2     1  UNL1       -0.2748
     20 N          15.5156   42.8660    6.5544 N.am    1  UNL1       -0.2839
     21 H          16.3141   42.2901    6.5577 H       1  UNL1        0.1549
     22 C          17.1048   44.7384    5.9476 C.3     1  UNL1        0.0768
     23 C          18.0177   43.5630    5.6486 C.3     1  UNL1        0.0096
     24 C          18.0663   44.2274    7.0055 C.3     1  UNL1        0.0096
     25 C          10.2131   39.5372    8.7373 C.3     1  UNL1        0.1325
     26 C           9.9166   40.2691   10.0106 C.ar    1  UNL1       -0.0039
     27 C          10.8590   40.3325   11.0554 C.ar    1  UNL1       -0.0240
     28 C          12.2006   39.6922   10.9369 C.3     1  UNL1        0.0308
     29 C          10.5445   41.0171   12.2341 C.ar    1  UNL1       -0.0048
     30 C           9.3016   41.6388   12.3783 C.ar    1  UNL1       -0.0046
     31 C           8.3671   41.5805   11.3420 C.ar    1  UNL1       -0.0221
     32 C           7.0456   42.2423   11.4940 C.3     1  UNL1        0.0310
     33 C           8.6744   40.8986   10.1624 C.ar    1  UNL1       -0.0070
@<TRIPOS>BOND
     1    16    17    1
     2    15    17    1
     3    15    14    1
     4    14    12    1
     5    10     1    1
     6     2     3   ar
     7     4     5   ar
     8     5    20    1
     9    22    18    1
    10    22    23    1
    11    23    24    1
    12    24    22    1
    13     6     7   ar
    14     8     9   ar
    15     8     3   ar
    16    25     9    1
    17    25    26    1
    18    27    29   ar
    19    28    27    1
    20    30    31   ar
    21    32    31    1
    22    33    26   ar
    23    12    10   am
    24    20    18   am
    25     9     1   ar
    26    10    11    2
    27     1     2   ar
    28     3     4   ar
    29     5     6   ar
    30    18    19    2
    31     7     8   ar
    32    26    27   ar
    33    29    30   ar
    34    31    33   ar
    35    12    13    1
    36    20    21    1
@<TRIPOS>MOLECULE
MolPort-028-889-943 ChemDiv-V030-3041 MCULE-3455100685 PubChem-83287203 ZINC000096276482 ZINC96276482
 33 36 0 0 0
SMALL
GASTEIGER

@<TRIPOS>ATOM
      1 C          12.6894   39.9980   10.4162 C.ar    1  UNL1        0.1142
      2 C          11.8061   40.9164   10.9920 C.ar    1  UNL1        0.0233
      3 C          10.7725   40.9969   10.0805 C.ar    1  UNL1        0.0186
      4 C           9.6064   41.7553   10.1292 C.ar    1  UNL1        0.0162
      5 C           8.6968   41.6470    9.0554 C.ar    1  UNL1        0.0504
      6 C           8.9891   40.7857    7.9747 C.ar    1  UNL1        0.0162
      7 C          10.1745   40.0308    7.9514 C.ar    1  UNL1        0.0185
      8 C          11.0480   40.1646    9.0303 C.ar    1  UNL1        0.0603
      9 N          12.2240   39.5459    9.2212 N.ar    1  UNL1       -0.3194
     10 C          13.9626   39.5915   11.0421 C.2     1  UNL1        0.2618
     11 O          13.9761   39.1014   12.2034 O.2     1  UNL1       -0.2686
     12 N          15.1878   39.7553   10.3211 N.am    1  UNL1       -0.2973
     13 H          15.1555   40.1673    9.4275 H       1  UNL1        0.1499
     14 C          16.4809   39.3402   10.8489 C.3     1  UNL1        0.1219
     15 C          17.6113   39.9261   10.0182 C.3     1  UNL1        0.1634
     16 C          18.2697   37.8798   10.5117 C.3     1  UNL1        0.1742
     17 O          18.4645   38.9083    9.5912 O.3     1  UNL1       -0.3493
     18 C           7.3390   43.8156    8.8724 C.2     1  UNL1        0.2256
     19 O           8.3535   44.5611    8.8076 O.2     1  UNL1       -0.2748
     20 N           7.4737   42.3950    9.0233 N.am    1  UNL1       -0.2839
     21 H           6.6395   41.8802    9.1143 H       1  UNL1        0.1549
     22 C           5.9753   44.4256    8.8466 C.3     1  UNL1        0.0768
     23 C           4.9325   43.3519    8.5927 C.3     1  UNL1        0.0096
     24 C           5.3619   44.2649    7.4672 C.3     1  UNL1        0.0096
     25 C          12.8291   38.5449    8.3461 C.3     1  UNL1        0.1325
     26 C          12.9352   37.2261    9.0493 C.ar    1  UNL1       -0.0039
     27 C          14.0262   36.3634    8.8270 C.ar    1  UNL1       -0.0240
     28 C          15.1342   36.7288    7.8983 C.3     1  UNL1        0.0308
     29 C          14.0879   35.1354    9.4941 C.ar    1  UNL1       -0.0048
     30 C          13.0740   34.7624   10.3802 C.ar    1  UNL1       -0.0046
     31 C          11.9933   35.6181   10.6050 C.ar    1  UNL1       -0.0221
     32 C          10.9152   35.2229   11.5480 C.3     1  UNL1        0.0310
     33 C          11.9252   36.8457    9.9422 C.ar    1  UNL1       -0.0070
@<TRIPOS>BOND
     1    16    17    1
     2    15    17    1
     3    15    14    1
     4    14    12    1
     5    10     1    1
     6     2     3   ar
     7     4     5   ar
     8     5    20    1
     9    22    18    1
    10    22    23    1
    11    23    24    1
    12    24    22    1
    13     6     7   ar
    14     8     9   ar
    15     8     3   ar
    16    25     9    1
    17    25    26    1
    18    27    29   ar
    19    28    27    1
    20    30    31   ar
    21    32    31    1
    22    33    26   ar
    23    12    10   am
    24    20    18   am
    25     9     1   ar
    26    10    11    2
    27     1     2   ar
    28     3     4   ar
    29     5     6   ar
    30    18    19    2
    31     7     8   ar
    32    26    27   ar
    33    29    30   ar
    34    31    33   ar
    35    12    13    1
    36    20    21    1
@<TRIPOS>MOLECULE
MolPort-028-889-943 ChemDiv-V030-3041 MCULE-3455100685 PubChem-83287203 ZINC000096276482 ZINC96276482
 33 36 0 0 0
SMALL
GASTEIGER

@<TRIPOS>ATOM
      1 C           9.7561   41.6744    6.5604 C.ar    1  UNL1        0.1142
      2 C          10.8140   42.3829    5.9824 C.ar    1  UNL1        0.0233
      3 C          11.9152   41.9900    6.7164 C.ar    1  UNL1        0.0186
      4 C          13.2478   42.3695    6.5851 C.ar    1  UNL1        0.0162
      5 C          14.1906   41.8059    7.4716 C.ar    1  UNL1        0.0504
      6 C          13.7640   40.8861    8.4549 C.ar    1  UNL1        0.0162
      7 C          12.4113   40.5200    8.5650 C.ar    1  UNL1        0.0185
      8 C          11.5101   41.0979    7.6713 C.ar    1  UNL1        0.0603
      9 N          10.1854   40.8960    7.5894 N.ar    1  UNL1       -0.3194
     10 C           8.3583   41.7795    6.0989 C.2     1  UNL1        0.2618
     11 O           7.7780   40.7849    5.5861 O.2     1  UNL1       -0.2686
     12 N           7.6601   43.0209    6.2381 N.am    1  UNL1       -0.2973
     13 H           8.1432   43.7918    6.6145 H       1  UNL1        0.1499
     14 C           6.2672   43.1962    5.8483 C.3     1  UNL1        0.1219
     15 C           5.3955   43.4370    7.0703 C.3     1  UNL1        0.1634
     16 C           4.0319   45.0537    7.6957 C.3     1  UNL1        0.1742
     17 O           5.3632   44.7990    7.3704 O.3     1  UNL1       -0.3493
     18 C          16.1440   43.4019    7.0056 C.2     1  UNL1        0.2256
     19 O          15.4079   44.3417    6.6003 O.2     1  UNL1       -0.2748
     20 N          15.5827   42.1443    7.4086 N.am    1  UNL1       -0.2839
     21 H          16.2198   41.4404    7.6690 H       1  UNL1        0.1549
     22 C          17.6273   43.5812    7.0150 C.3     1  UNL1        0.0768
     23 C          18.2757   42.4885    7.8457 C.3     1  UNL1        0.0096
     24 C          18.1048   43.8737    8.4261 C.3     1  UNL1        0.0096
     25 C           9.3970   39.9740    8.4033 C.3     1  UNL1        0.1325
     26 C           9.0273   40.6090    9.7091 C.ar    1  UNL1       -0.0039
     27 C           7.7556   41.1798    9.9118 C.ar    1  UNL1       -0.0240
     28 C           6.7129   41.1623    8.8458 C.3     1  UNL1        0.0308
     29 C           7.4481   41.7724   11.1409 C.ar    1  UNL1       -0.0048
     30 C           8.3953   41.7990   12.1677 C.ar    1  UNL1       -0.0046
     31 C           9.6555   41.2302   11.9702 C.ar    1  UNL1       -0.0221
     32 C          10.6630   41.2570   13.0619 C.3     1  UNL1        0.0310
     33 C           9.9694   40.6369   10.7453 C.ar    1  UNL1       -0.0070
@<TRIPOS>BOND
     1    16    17    1
     2    15    17    1
     3    15    14    1
     4    14    12    1
     5    10     1    1
     6     2     3   ar
     7     4     5   ar
     8     5    20    1
     9    22    18    1
    10    22    23    1
    11    23    24    1
    12    24    22    1
    13     6     7   ar
    14     8     9   ar
    15     8     3   ar
    16    25     9    1
    17    25    26    1
    18    27    29   ar
    19    28    27    1
    20    30    31   ar
    21    32    31    1
    22    33    26   ar
    23    12    10   am
    24    20    18   am
    25     9     1   ar
    26    10    11    2
    27     1     2   ar
    28     3     4   ar
    29     5     6   ar
    30    18    19    2
    31     7     8   ar
    32    26    27   ar
    33    29    30   ar
    34    31    33   ar
    35    12    13    1
    36    20    21    1
@<TRIPOS>MOLECULE
MolPort-028-889-943 ChemDiv-V030-3041 MCULE-3455100685 PubChem-83287203 ZINC000096276482 ZINC96276482
 33 36 0 0 0
SMALL
GASTEIGER

@<TRIPOS>ATOM
      1 C          11.9650   40.0966   10.4413 C.ar    1  UNL1        0.1142
      2 C          10.9110   40.6608   11.1666 C.ar    1  UNL1        0.0233
      3 C          10.2347   41.4184   10.2316 C.ar    1  UNL1        0.0186
      4 C           9.0935   42.2006   10.3840 C.ar    1  UNL1        0.0162
      5 C           8.5940   42.8768    9.2502 C.ar    1  UNL1        0.0504
      6 C           9.2555   42.7455    8.0092 C.ar    1  UNL1        0.0162
      7 C          10.4064   41.9485    7.8835 C.ar    1  UNL1        0.0185
      8 C          10.8693   41.2960    9.0258 C.ar    1  UNL1        0.0603
      9 N          11.9359   40.4889    9.1397 N.ar    1  UNL1       -0.3194
     10 C          12.9726   39.1974   11.0365 C.2     1  UNL1        0.2618
     11 O          13.7147   39.5996   11.9726 O.2     1  UNL1       -0.2686
     12 N          13.1032   37.8597   10.5452 N.am    1  UNL1       -0.2973
     13 H          12.5329   37.5774    9.7940 H       1  UNL1        0.1499
     14 C          14.0415   36.8964   11.1060 C.3     1  UNL1        0.1219
     15 C          15.4070   37.5336   11.3069 C.3     1  UNL1        0.1634
     16 C          17.4898   37.6225   10.5870 C.3     1  UNL1        0.1742
     17 O          16.3849   36.7760   10.6620 O.3     1  UNL1       -0.3493
     18 C           6.3903   43.8156    8.3323 C.2     1  UNL1        0.2256
     19 O           6.4656   43.1911    7.2398 O.2     1  UNL1       -0.2748
     20 N           7.4261   43.7062    9.3193 N.am    1  UNL1       -0.2839
     21 H           7.3244   44.2580   10.1282 H       1  UNL1        0.1549
     22 C           5.2319   44.7259    8.5808 C.3     1  UNL1        0.0768
     23 C           3.9451   43.9226    8.6384 C.3     1  UNL1        0.0096
     24 C           4.2900   44.7025    7.3904 C.3     1  UNL1        0.0096
     25 C          12.8292   40.0752    8.0603 C.3     1  UNL1        0.1325
     26 C          13.8067   41.1645    7.7395 C.ar    1  UNL1       -0.0039
     27 C          15.0742   41.2148    8.3519 C.ar    1  UNL1       -0.0240
     28 C          15.5098   40.1784    9.3316 C.3     1  UNL1        0.0308
     29 C          15.9580   42.2518    8.0353 C.ar    1  UNL1       -0.0048
     30 C          15.5899   43.2356    7.1140 C.ar    1  UNL1       -0.0046
     31 C          14.3351   43.1855    6.5027 C.ar    1  UNL1       -0.0221
     32 C          13.9432   44.2307    5.5221 C.3     1  UNL1        0.0310
     33 C          13.4475   42.1530    6.8143 C.ar    1  UNL1       -0.0070
@<TRIPOS>BOND
     1    16    17    1
     2    15    17    1
     3    15    14    1
     4    14    12    1
     5    10     1    1
     6     2     3   ar
     7     4     5   ar
     8     5    20    1
     9    22    18    1
    10    22    23    1
    11    23    24    1
    12    24    22    1
    13     6     7   ar
    14     8     9   ar
    15     8     3   ar
    16    25     9    1
    17    25    26    1
    18    27    29   ar
    19    28    27    1
    20    30    31   ar
    21    32    31    1
    22    33    26   ar
    23    12    10   am
    24    20    18   am
    25     9     1   ar
    26    10    11    2
    27     1     2   ar
    28     3     4   ar
    29     5     6   ar
    30    18    19    2
    31     7     8   ar
    32    26    27   ar
    33    29    30   ar
    34    31    33   ar
    35    12    13    1
    36    20    21    1
