@<TRIPOS>MOLECULE
Molport-047-879-569 PubChem-165923563
 25 26 0 0 0
SMALL
GASTEIGER

@<TRIPOS>ATOM
      1 C          13.3318   41.3855    8.0334 C.ar    1  UNL1       -0.0176
      2 C          12.0135   41.2397    8.4772 C.ar    1  UNL1        0.0106
      3 C          11.7341   40.5411    9.6566 C.ar    1  UNL1        0.0529
      4 C          12.7929   39.9900   10.3947 C.ar    1  UNL1        0.0147
      5 C          14.1123   40.1387    9.9580 C.ar    1  UNL1        0.0010
      6 C          14.3823   40.8374    8.7788 C.ar    1  UNL1       -0.0041
      7 C           9.4062   41.4624   10.2105 C.2     1  UNL1        0.4057
      8 O           9.7117   42.6566    9.9423 O.2     1  UNL1       -0.2261
      9 N          10.3678   40.4090   10.0723 N.am    1  UNL1       -0.2499
     10 H          10.0581   39.4990   10.2851 H       1  UNL1        0.1582
     11 O           8.1167   41.1446   10.6427 O.3     1  UNL1       -0.4295
     12 C           7.1970   42.1295   11.1015 C.3     1  UNL1        0.2367
     13 C           5.8074   41.7777   10.6903 C.ar    1  UNL1        0.0213
     14 C           5.1725   42.4991    9.6728 C.ar    1  UNL1       -0.0007
     15 C           3.8748   42.1589    9.2785 C.ar    1  UNL1       -0.0002
     16 C           3.2117   41.0957    9.8992 C.ar    1  UNL1       -0.0000
     17 C           3.8463   40.3720   10.9136 C.ar    1  UNL1       -0.0002
     18 C           5.1439   40.7122   11.3080 C.ar    1  UNL1       -0.0007
     19 C          13.6075   42.1383    6.7730 C.3     1  UNL1        0.0733
     20 C          14.9589   42.8403    6.8270 C.3     1  UNL1        0.2628
     21 F          15.1472   43.3849    8.0840 F       1  UNL1       -0.2248
     22 C          15.0435   43.9120    5.7895 C.2     1  UNL1        0.3504
     23 O          14.0154   44.5752    5.4811 O.2     1  UNL1       -0.2470
     24 C          17.5032   43.9069    5.7874 C.3     1  UNL1        0.2557
     25 O          16.2593   44.1395    5.1446 O.3     1  UNL1       -0.4425
@<TRIPOS>BOND
     1    24    25    1
     2    22    25    1
     3    20    22    1
     4    20    19    1
     5    20    21    1
     6    19     1    1
     7     2     3   ar
     8     3     9    1
     9     4     5   ar
    10     6     1   ar
    11     7    11    1
    12    12    11    1
    13    12    13    1
    14    14    15   ar
    15    16    17   ar
    16    18    13   ar
    17     9     7   am
    18    22    23    2
    19     1     2   ar
    20     3     4   ar
    21     5     6   ar
    22     7     8    2
    23    13    14   ar
    24    15    16   ar
    25    17    18   ar
    26     9    10    1
@<TRIPOS>MOLECULE
Molport-047-879-569 PubChem-165923563
 25 26 0 0 0
SMALL
GASTEIGER

@<TRIPOS>ATOM
      1 C          13.6136   41.7114    7.7634 C.ar    1  UNL1       -0.0176
      2 C          12.3001   41.8238    8.2305 C.ar    1  UNL1        0.0106
      3 C          11.9056   41.1737    9.4047 C.ar    1  UNL1        0.0529
      4 C          12.8445   40.4088   10.1140 C.ar    1  UNL1        0.0147
      5 C          14.1597   40.2989    9.6540 C.ar    1  UNL1        0.0010
      6 C          14.5450   40.9510    8.4801 C.ar    1  UNL1       -0.0041
      7 C           9.9405   42.4780   10.4106 C.2     1  UNL1        0.4057
      8 O          10.5995   43.5439   10.5550 O.2     1  UNL1       -0.2261
      9 N          10.5474   41.3095    9.8450 N.am    1  UNL1       -0.2499
     10 H           9.9716   40.5168    9.7484 H       1  UNL1        0.1582
     11 O           8.5992   42.4206   10.7959 O.3     1  UNL1       -0.4295
     12 C           7.5689   43.1054   10.0917 C.3     1  UNL1        0.2367
     13 C           7.3804   42.5127    8.7364 C.ar    1  UNL1        0.0213
     14 C           6.9850   41.1768    8.6031 C.ar    1  UNL1       -0.0007
     15 C           6.7947   40.6266    7.3317 C.ar    1  UNL1       -0.0002
     16 C           6.9971   41.4120    6.1927 C.ar    1  UNL1       -0.0000
     17 C           7.3890   42.7478    6.3246 C.ar    1  UNL1       -0.0002
     18 C           7.5794   43.2981    7.5959 C.ar    1  UNL1       -0.0007
     19 C          14.0139   42.4167    6.5090 C.3     1  UNL1        0.0733
     20 C          15.3355   43.1554    6.6821 C.3     1  UNL1        0.2628
     21 F          15.2522   44.0030    7.7715 F       1  UNL1       -0.2248
     22 C          15.6735   43.9359    5.4539 C.2     1  UNL1        0.3504
     23 O          14.7587   44.2985    4.6641 O.2     1  UNL1       -0.2470
     24 C          18.0638   43.7550    6.0053 C.3     1  UNL1        0.2557
     25 O          17.0103   44.2218    5.1764 O.3     1  UNL1       -0.4425
@<TRIPOS>BOND
     1    24    25    1
     2    22    25    1
     3    20    22    1
     4    20    19    1
     5    20    21    1
     6    19     1    1
     7     2     3   ar
     8     3     9    1
     9     4     5   ar
    10     6     1   ar
    11     7    11    1
    12    12    11    1
    13    12    13    1
    14    14    15   ar
    15    16    17   ar
    16    18    13   ar
    17     9     7   am
    18    22    23    2
    19     1     2   ar
    20     3     4   ar
    21     5     6   ar
    22     7     8    2
    23    13    14   ar
    24    15    16   ar
    25    17    18   ar
    26     9    10    1
@<TRIPOS>MOLECULE
Molport-047-879-569 PubChem-165923563
 25 26 0 0 0
SMALL
GASTEIGER

@<TRIPOS>ATOM
      1 C          13.5866   41.0276    8.8323 C.ar    1  UNL1       -0.0176
      2 C          12.2029   41.2088    8.9252 C.ar    1  UNL1        0.0106
      3 C          11.4805   40.6355    9.9772 C.ar    1  UNL1        0.0529
      4 C          12.1602   39.8781   10.9436 C.ar    1  UNL1        0.0147
      5 C          13.5438   39.6998   10.8579 C.ar    1  UNL1        0.0010
      6 C          14.2574   40.2754    9.8038 C.ar    1  UNL1       -0.0041
      7 C           9.3815   42.0494   10.3893 C.2     1  UNL1        0.4057
      8 O          10.0273   43.0917   10.6859 O.2     1  UNL1       -0.2261
      9 N          10.0620   40.8401   10.0312 N.am    1  UNL1       -0.2499
     10 H           9.4963   40.0688    9.7979 H       1  UNL1        0.1582
     11 O           7.9849   42.0587   10.3988 O.3     1  UNL1       -0.4295
     12 C           7.2071   41.5497    9.3207 C.3     1  UNL1        0.2367
     13 C           6.1599   42.5338    8.9225 C.ar    1  UNL1        0.0213
     14 C           4.8581   42.4144    9.4222 C.ar    1  UNL1       -0.0007
     15 C           3.8807   43.3463    9.0592 C.ar    1  UNL1       -0.0002
     16 C           4.2046   44.3996    8.1985 C.ar    1  UNL1       -0.0000
     17 C           5.5058   44.5219    7.7012 C.ar    1  UNL1       -0.0002
     18 C           6.4831   43.5900    8.0640 C.ar    1  UNL1       -0.0007
     19 C          14.3386   41.6516    7.7026 C.3     1  UNL1        0.0733
     20 C          13.4484   42.5797    6.8852 C.3     1  UNL1        0.2628
     21 F          12.9496   41.8969    5.7910 F       1  UNL1       -0.2248
     22 C          14.2089   43.7830    6.4315 C.2     1  UNL1        0.3504
     23 O          13.7528   44.5057    5.5033 O.2     1  UNL1       -0.2470
     24 C          16.6081   44.2918    6.2436 C.3     1  UNL1        0.2557
     25 O          15.4406   44.0705    7.0198 O.3     1  UNL1       -0.4425
@<TRIPOS>BOND
     1    24    25    1
     2    22    25    1
     3    20    22    1
     4    20    19    1
     5    20    21    1
     6    19     1    1
     7     2     3   ar
     8     3     9    1
     9     4     5   ar
    10     6     1   ar
    11     7    11    1
    12    12    11    1
    13    12    13    1
    14    14    15   ar
    15    16    17   ar
    16    18    13   ar
    17     9     7   am
    18    22    23    2
    19     1     2   ar
    20     3     4   ar
    21     5     6   ar
    22     7     8    2
    23    13    14   ar
    24    15    16   ar
    25    17    18   ar
    26     9    10    1
@<TRIPOS>MOLECULE
Molport-047-879-569 PubChem-165923563
 25 26 0 0 0
SMALL
GASTEIGER

@<TRIPOS>ATOM
      1 C          12.9676   38.3191    9.5184 C.ar    1  UNL1       -0.0176
      2 C          11.6806   38.6857    9.1119 C.ar    1  UNL1        0.0106
      3 C          10.9701   39.6709    9.8059 C.ar    1  UNL1        0.0529
      4 C          11.5646   40.2928   10.9147 C.ar    1  UNL1        0.0147
      5 C          12.8529   39.9338   11.3205 C.ar    1  UNL1        0.0010
      6 C          13.5552   38.9486   10.6221 C.ar    1  UNL1       -0.0041
      7 C           9.2879   41.1030    8.5043 C.2     1  UNL1        0.4057
      8 O          10.1660   41.8808    8.0404 O.2     1  UNL1       -0.2261
      9 N           9.6503   40.0121    9.3599 N.am    1  UNL1       -0.2499
     10 H           8.9163   39.4364    9.6747 H       1  UNL1        0.1582
     11 O           7.9411   41.2894    8.1846 O.3     1  UNL1       -0.4295
     12 C           7.2693   42.5281    8.3860 C.3     1  UNL1        0.2367
     13 C           6.0925   42.3436    9.2832 C.ar    1  UNL1        0.0213
     14 C           6.2072   41.5650   10.4405 C.ar    1  UNL1       -0.0007
     15 C           5.1068   41.4047   11.2883 C.ar    1  UNL1       -0.0002
     16 C           3.8916   42.0247   10.9812 C.ar    1  UNL1       -0.0000
     17 C           3.7767   42.8057    9.8269 C.ar    1  UNL1       -0.0002
     18 C           4.8770   42.9659    8.9791 C.ar    1  UNL1       -0.0007
     19 C          13.7095   37.2671    8.7608 C.3     1  UNL1        0.0733
     20 C          15.1282   37.0948    9.2898 C.3     1  UNL1        0.2628
     21 F          15.8529   38.2487    9.0543 F       1  UNL1       -0.2248
     22 C          15.8003   35.9294    8.6399 C.2     1  UNL1        0.3504
     23 O          16.5999   36.1150    7.6818 O.2     1  UNL1       -0.2470
     24 C          16.0026   33.4879    8.4199 C.3     1  UNL1        0.2557
     25 O          15.5023   34.6400    9.0810 O.3     1  UNL1       -0.4425
@<TRIPOS>BOND
     1    24    25    1
     2    22    25    1
     3    20    22    1
     4    20    19    1
     5    20    21    1
     6    19     1    1
     7     2     3   ar
     8     3     9    1
     9     4     5   ar
    10     6     1   ar
    11     7    11    1
    12    12    11    1
    13    12    13    1
    14    14    15   ar
    15    16    17   ar
    16    18    13   ar
    17     9     7   am
    18    22    23    2
    19     1     2   ar
    20     3     4   ar
    21     5     6   ar
    22     7     8    2
    23    13    14   ar
    24    15    16   ar
    25    17    18   ar
    26     9    10    1
@<TRIPOS>MOLECULE
Molport-047-879-569 PubChem-165923563
 25 26 0 0 0
SMALL
GASTEIGER

@<TRIPOS>ATOM
      1 C           7.2354   41.4776   10.0950 C.ar    1  UNL1       -0.0176
      2 C           8.5007   41.3853    9.5065 C.ar    1  UNL1        0.0106
      3 C           9.6536   41.3723   10.2989 C.ar    1  UNL1        0.0529
      4 C           9.5276   41.4487   11.6946 C.ar    1  UNL1        0.0147
      5 C           8.2647   41.5350   12.2871 C.ar    1  UNL1        0.0010
      6 C           7.1187   41.5478   11.4883 C.ar    1  UNL1       -0.0041
      7 C          11.2401   41.6477    8.3034 C.2     1  UNL1        0.4057
      8 O          10.3517   42.1185    7.5416 O.2     1  UNL1       -0.2261
      9 N          10.9319   41.2833    9.6547 N.am    1  UNL1       -0.2499
     10 H          11.6757   40.9354   10.1978 H       1  UNL1        0.1582
     11 O          12.5475   41.4788    7.8420 O.3     1  UNL1       -0.4295
     12 C          12.9450   41.8255    6.5198 C.3     1  UNL1        0.2367
     13 C          14.1003   42.7679    6.5524 C.ar    1  UNL1        0.0213
     14 C          15.2264   42.4715    7.3287 C.ar    1  UNL1       -0.0007
     15 C          16.3148   43.3493    7.3470 C.ar    1  UNL1       -0.0002
     16 C          16.2794   44.5226    6.5872 C.ar    1  UNL1       -0.0000
     17 C          15.1561   44.8182    5.8086 C.ar    1  UNL1       -0.0002
     18 C          14.0677   43.9407    5.7903 C.ar    1  UNL1       -0.0007
     19 C           6.0177   41.4864    9.2300 C.3     1  UNL1        0.0733
     20 C           4.7568   41.7485   10.0447 C.3     1  UNL1        0.2628
     21 F           3.9762   40.6073   10.0685 F       1  UNL1       -0.2248
     22 C           3.9784   42.8864    9.4690 C.2     1  UNL1        0.3504
     23 O           2.7430   42.7584    9.2469 O.2     1  UNL1       -0.2470
     24 C           4.6770   44.5731    7.8205 C.3     1  UNL1        0.2557
     25 O           4.6422   44.0704    9.1475 O.3     1  UNL1       -0.4425
@<TRIPOS>BOND
     1    24    25    1
     2    22    25    1
     3    20    22    1
     4    20    19    1
     5    20    21    1
     6    19     1    1
     7     2     3   ar
     8     3     9    1
     9     4     5   ar
    10     6     1   ar
    11     7    11    1
    12    12    11    1
    13    12    13    1
    14    14    15   ar
    15    16    17   ar
    16    18    13   ar
    17     9     7   am
    18    22    23    2
    19     1     2   ar
    20     3     4   ar
    21     5     6   ar
    22     7     8    2
    23    13    14   ar
    24    15    16   ar
    25    17    18   ar
    26     9    10    1
@<TRIPOS>MOLECULE
Molport-047-879-569 PubChem-165923563
 25 26 0 0 0
SMALL
GASTEIGER

@<TRIPOS>ATOM
      1 C           7.7859   41.4377    7.9757 C.ar    1  UNL1       -0.0176
      2 C           9.0781   41.7110    7.5159 C.ar    1  UNL1        0.0106
      3 C           9.5768   41.0710    6.3763 C.ar    1  UNL1        0.0529
      4 C           8.7640   40.1524    5.6942 C.ar    1  UNL1        0.0147
      5 C           7.4698   39.8810    6.1468 C.ar    1  UNL1        0.0010
      6 C           6.9798   40.5243    7.2860 C.ar    1  UNL1       -0.0041
      7 C          11.9861   41.8638    6.7527 C.2     1  UNL1        0.4057
      8 O          11.8288   42.0582    7.9891 O.2     1  UNL1       -0.2261
      9 N          10.9098   41.3749    5.9427 N.am    1  UNL1       -0.2499
     10 H          11.1059   41.2327    4.9885 H       1  UNL1        0.1582
     11 O          13.2206   42.1172    6.1506 O.3     1  UNL1       -0.4295
     12 C          13.8824   43.3730    6.2567 C.3     1  UNL1        0.2367
     13 C          15.1919   43.2157    6.9525 C.ar    1  UNL1        0.0213
     14 C          15.4049   42.1313    7.8112 C.ar    1  UNL1       -0.0007
     15 C          16.6383   41.9773    8.4518 C.ar    1  UNL1       -0.0002
     16 C          17.6606   42.9058    8.2324 C.ar    1  UNL1       -0.0000
     17 C          17.4502   43.9878    7.3720 C.ar    1  UNL1       -0.0002
     18 C          16.2168   44.1420    6.7315 C.ar    1  UNL1       -0.0007
     19 C           7.2724   42.1351    9.1927 C.3     1  UNL1        0.0733
     20 C           5.8647   41.6724    9.5484 C.3     1  UNL1        0.2628
     21 F           4.9571   42.6659    9.2298 F       1  UNL1       -0.2248
     22 C           5.7657   41.3385   11.0012 C.2     1  UNL1        0.3504
     23 O           6.7416   41.5626   11.7689 O.2     1  UNL1       -0.2470
     24 C           3.4396   41.5046   11.7837 C.3     1  UNL1        0.2557
     25 O           4.5999   40.7439   11.4842 O.3     1  UNL1       -0.4425
@<TRIPOS>BOND
     1    24    25    1
     2    22    25    1
     3    20    22    1
     4    20    19    1
     5    20    21    1
     6    19     1    1
     7     2     3   ar
     8     3     9    1
     9     4     5   ar
    10     6     1   ar
    11     7    11    1
    12    12    11    1
    13    12    13    1
    14    14    15   ar
    15    16    17   ar
    16    18    13   ar
    17     9     7   am
    18    22    23    2
    19     1     2   ar
    20     3     4   ar
    21     5     6   ar
    22     7     8    2
    23    13    14   ar
    24    15    16   ar
    25    17    18   ar
    26     9    10    1
@<TRIPOS>MOLECULE
Molport-047-879-569 PubChem-165923563
 25 26 0 0 0
SMALL
GASTEIGER

@<TRIPOS>ATOM
      1 C           7.4011   41.8283    6.7968 C.ar    1  UNL1       -0.0176
      2 C           8.6798   42.2941    6.4742 C.ar    1  UNL1        0.0106
      3 C           9.6173   41.4421    5.8806 C.ar    1  UNL1        0.0529
      4 C           9.2600   40.1127    5.6073 C.ar    1  UNL1        0.0147
      5 C           7.9812   39.6450    5.9225 C.ar    1  UNL1        0.0010
      6 C           7.0512   40.5024    6.5156 C.ar    1  UNL1       -0.0041
      7 C          12.1290   41.7326    6.3070 C.2     1  UNL1        0.4057
      8 O          12.1345   41.0026    7.3358 O.2     1  UNL1       -0.2261
      9 N          10.9195   41.9580    5.5722 N.am    1  UNL1       -0.2499
     10 H          10.9899   42.5267    4.7716 H       1  UNL1        0.1582
     11 O          13.3094   42.3314    5.8610 O.3     1  UNL1       -0.4295
     12 C          13.8182   43.5362    6.4231 C.3     1  UNL1        0.2367
     13 C          15.1814   43.3147    6.9855 C.ar    1  UNL1        0.0213
     14 C          16.2085   44.2264    6.7164 C.ar    1  UNL1       -0.0007
     15 C          17.4826   44.0249    7.2563 C.ar    1  UNL1       -0.0002
     16 C          17.7302   42.9133    8.0676 C.ar    1  UNL1       -0.0000
     17 C          16.7039   42.0035    8.3400 C.ar    1  UNL1       -0.0002
     18 C          15.4298   42.2048    7.8001 C.ar    1  UNL1       -0.0007
     19 C           6.4147   42.7562    7.4270 C.3     1  UNL1        0.0733
     20 C           6.8883   43.2272    8.7967 C.3     1  UNL1        0.2628
     21 F           8.0652   43.9401    8.6590 F       1  UNL1       -0.2248
     22 C           7.0994   42.0674    9.7144 C.2     1  UNL1        0.3504
     23 O           6.1795   41.2207    9.8845 O.2     1  UNL1       -0.2470
     24 C           9.4280   41.2867    9.8506 C.3     1  UNL1        0.2557
     25 O           8.3066   41.9576   10.4047 O.3     1  UNL1       -0.4425
@<TRIPOS>BOND
     1    24    25    1
     2    22    25    1
     3    20    22    1
     4    20    19    1
     5    20    21    1
     6    19     1    1
     7     2     3   ar
     8     3     9    1
     9     4     5   ar
    10     6     1   ar
    11     7    11    1
    12    12    11    1
    13    12    13    1
    14    14    15   ar
    15    16    17   ar
    16    18    13   ar
    17     9     7   am
    18    22    23    2
    19     1     2   ar
    20     3     4   ar
    21     5     6   ar
    22     7     8    2
    23    13    14   ar
    24    15    16   ar
    25    17    18   ar
    26     9    10    1
@<TRIPOS>MOLECULE
Molport-047-879-569 PubChem-165923563
 25 26 0 0 0
SMALL
GASTEIGER

@<TRIPOS>ATOM
      1 C           7.0662   42.0310    8.2174 C.ar    1  UNL1       -0.0176
      2 C           8.4449   42.2399    8.1102 C.ar    1  UNL1        0.0106
      3 C           9.2434   41.3515    7.3820 C.ar    1  UNL1        0.0529
      4 C           8.6453   40.2477    6.7546 C.ar    1  UNL1        0.0147
      5 C           7.2670   40.0387    6.8542 C.ar    1  UNL1        0.0010
      6 C           6.4770   40.9306    7.5838 C.ar    1  UNL1       -0.0041
      7 C          11.4928   41.4285    6.1535 C.2     1  UNL1        0.4057
      8 O          11.0126   41.0387    5.0541 O.2     1  UNL1       -0.2261
      9 N          10.6540   41.5987    7.3029 N.am    1  UNL1       -0.2499
     10 H          11.0919   41.9189    8.1244 H       1  UNL1        0.1582
     11 O          12.8564   41.7084    6.2677 O.3     1  UNL1       -0.4295
     12 C          13.5625   41.5937    7.4984 C.3     1  UNL1        0.2367
     13 C          14.8197   42.3947    7.4553 C.ar    1  UNL1        0.0213
     14 C          15.9603   41.9479    8.1321 C.ar    1  UNL1       -0.0007
     15 C          17.1425   42.6928    8.0790 C.ar    1  UNL1       -0.0002
     16 C          17.1862   43.8835    7.3472 C.ar    1  UNL1       -0.0000
     17 C          16.0482   44.3292    6.6678 C.ar    1  UNL1       -0.0002
     18 C          14.8659   43.5845    6.7209 C.ar    1  UNL1       -0.0007
     19 C           6.2321   42.9941    8.9971 C.3     1  UNL1        0.0733
     20 C           5.2797   43.7666    8.0926 C.3     1  UNL1        0.2628
     21 F           5.7981   45.0238    7.8415 F       1  UNL1       -0.2248
     22 C           3.9299   43.8883    8.7213 C.2     1  UNL1        0.3504
     23 O           3.1705   44.8456    8.4070 O.2     1  UNL1       -0.2470
     24 C           3.0519   41.6715    9.3260 C.3     1  UNL1        0.2557
     25 O           3.5412   42.9553    9.6827 O.3     1  UNL1       -0.4425
@<TRIPOS>BOND
     1    24    25    1
     2    22    25    1
     3    20    22    1
     4    20    19    1
     5    20    21    1
     6    19     1    1
     7     2     3   ar
     8     3     9    1
     9     4     5   ar
    10     6     1   ar
    11     7    11    1
    12    12    11    1
    13    12    13    1
    14    14    15   ar
    15    16    17   ar
    16    18    13   ar
    17     9     7   am
    18    22    23    2
    19     1     2   ar
    20     3     4   ar
    21     5     6   ar
    22     7     8    2
    23    13    14   ar
    24    15    16   ar
    25    17    18   ar
    26     9    10    1
@<TRIPOS>MOLECULE
Molport-047-879-569 PubChem-165923563
 25 26 0 0 0
SMALL
GASTEIGER

@<TRIPOS>ATOM
      1 C           7.1994   42.3371    7.1065 C.ar    1  UNL1       -0.0176
      2 C           8.4869   42.5038    7.6266 C.ar    1  UNL1        0.0106
      3 C           9.3988   41.4429    7.6196 C.ar    1  UNL1        0.0529
      4 C           9.0094   40.2071    7.0802 C.ar    1  UNL1        0.0147
      5 C           7.7258   40.0381    6.5538 C.ar    1  UNL1        0.0010
      6 C           6.8213   41.1027    6.5653 C.ar    1  UNL1       -0.0041
      7 C          11.9037   41.9619    7.4438 C.2     1  UNL1        0.4057
      8 O          11.8846   42.0924    6.1893 O.2     1  UNL1       -0.2261
      9 N          10.7066   41.6544    8.1691 N.am    1  UNL1       -0.2499
     10 H          10.7908   41.5805    9.1472 H       1  UNL1        0.1582
     11 O          13.0972   42.1223    8.1513 O.3     1  UNL1       -0.4295
     12 C          14.2702   41.3715    7.8568 C.3     1  UNL1        0.2367
     13 C          15.4443   42.2775    7.7009 C.ar    1  UNL1        0.0213
     14 C          15.3615   43.3962    6.8640 C.ar    1  UNL1       -0.0007
     15 C          16.4586   44.2528    6.7299 C.ar    1  UNL1       -0.0002
     16 C          17.6383   43.9933    7.4343 C.ar    1  UNL1       -0.0000
     17 C          17.7211   42.8777    8.2733 C.ar    1  UNL1       -0.0002
     18 C          16.6242   42.0210    8.4074 C.ar    1  UNL1       -0.0007
     19 C           6.2430   43.4844    7.1210 C.3     1  UNL1        0.0733
     20 C           5.8249   43.8439    8.5416 C.3     1  UNL1        0.2628
     21 F           6.6917   43.2529    9.4424 F       1  UNL1       -0.2248
     22 C           4.4253   43.3974    8.8133 C.2     1  UNL1        0.3504
     23 O           3.4803   44.2332    8.7934 O.2     1  UNL1       -0.2470
     24 C           2.8973   41.5927    9.4907 C.3     1  UNL1        0.2557
     25 O           4.1872   42.0587    9.1250 O.3     1  UNL1       -0.4425
@<TRIPOS>BOND
     1    24    25    1
     2    22    25    1
     3    20    22    1
     4    20    19    1
     5    20    21    1
     6    19     1    1
     7     2     3   ar
     8     3     9    1
     9     4     5   ar
    10     6     1   ar
    11     7    11    1
    12    12    11    1
    13    12    13    1
    14    14    15   ar
    15    16    17   ar
    16    18    13   ar
    17     9     7   am
    18    22    23    2
    19     1     2   ar
    20     3     4   ar
    21     5     6   ar
    22     7     8    2
    23    13    14   ar
    24    15    16   ar
    25    17    18   ar
    26     9    10    1
@<TRIPOS>MOLECULE
Molport-047-879-569 PubChem-165923563
 25 26 0 0 0
SMALL
GASTEIGER

@<TRIPOS>ATOM
      1 C          14.1631   40.4512    9.5231 C.ar    1  UNL1       -0.0176
      2 C          12.7989   40.6485    9.7599 C.ar    1  UNL1        0.0106
      3 C          12.0427   41.4688    8.9159 C.ar    1  UNL1        0.0529
      4 C          12.6671   42.0903    7.8234 C.ar    1  UNL1        0.0147
      5 C          14.0288   41.8909    7.5796 C.ar    1  UNL1        0.0010
      6 C          14.7766   41.0706    8.4279 C.ar    1  UNL1       -0.0041
      7 C          10.0448   42.7647    9.8665 C.2     1  UNL1        0.4057
      8 O          10.7440   43.7364   10.2643 O.2     1  UNL1       -0.2261
      9 N          10.6483   41.6498    9.1984 N.am    1  UNL1       -0.2499
     10 H          10.0421   40.9328    8.9024 H       1  UNL1        0.1582
     11 O           8.6624   42.7624   10.0659 O.3     1  UNL1       -0.4295
     12 C           7.7598   42.1181    9.1735 C.3     1  UNL1        0.2367
     13 C           6.3664   42.1881    9.6999 C.ar    1  UNL1        0.0213
     14 C           5.4044   42.9608    9.0396 C.ar    1  UNL1       -0.0007
     15 C           4.0946   43.0141    9.5263 C.ar    1  UNL1       -0.0002
     16 C           3.7448   42.2929   10.6721 C.ar    1  UNL1       -0.0000
     17 C           4.7042   41.5177   11.3308 C.ar    1  UNL1       -0.0002
     18 C           6.0140   41.4645   10.8443 C.ar    1  UNL1       -0.0007
     19 C          14.9507   39.5686   10.4352 C.3     1  UNL1        0.0733
     20 C          14.0422   38.6549   11.2488 C.3     1  UNL1        0.2628
     21 F          13.7626   39.2465   12.4670 F       1  UNL1       -0.2248
     22 C          14.6830   37.3226   11.4645 C.2     1  UNL1        0.3504
     23 O          15.7377   37.2326   12.1511 O.2     1  UNL1       -0.2470
     24 C          13.0070   36.2845    9.9935 C.3     1  UNL1        0.2557
     25 O          14.1222   36.1938   10.8669 O.3     1  UNL1       -0.4425
@<TRIPOS>BOND
     1    24    25    1
     2    22    25    1
     3    20    22    1
     4    20    19    1
     5    20    21    1
     6    19     1    1
     7     2     3   ar
     8     3     9    1
     9     4     5   ar
    10     6     1   ar
    11     7    11    1
    12    12    11    1
    13    12    13    1
    14    14    15   ar
    15    16    17   ar
    16    18    13   ar
    17     9     7   am
    18    22    23    2
    19     1     2   ar
    20     3     4   ar
    21     5     6   ar
    22     7     8    2
    23    13    14   ar
    24    15    16   ar
    25    17    18   ar
    26     9    10    1
