@<TRIPOS>MOLECULE
MolPort-009-692-422 9320458 CSSS03437188557 MCULE-7610529004 PubChem-16949111 ZINC000009320458 ZINC09320458
 28 30 0 0 0
SMALL
GASTEIGER

@<TRIPOS>ATOM
      1 C          11.8242   41.6678    7.0569 C.ar    1  UNL1        0.1656
      2 C          14.0240   41.9775    7.4260 C.ar    1  UNL1        0.0923
      3 C          13.8070   40.8517    8.2426 C.ar    1  UNL1        0.0886
      4 S          12.1800   40.4224    8.1183 S.2     1  UNL1       -0.0482
      5 N          12.9107   42.4172    6.7743 N.ar    1  UNL1       -0.2238
      6 C          15.3058   42.7030    7.2853 C.ar    1  UNL1        0.0183
      7 C          16.2273   42.7716    8.3414 C.ar    1  UNL1        0.0015
      8 C          17.4152   43.4948    8.2020 C.ar    1  UNL1        0.0000
      9 C          17.6875   44.1664    7.0077 C.ar    1  UNL1        0.0000
     10 C          16.7698   44.1185    5.9555 C.ar    1  UNL1        0.0000
     11 C          15.5821   43.3945    6.0963 C.ar    1  UNL1        0.0015
     12 C           9.3322   42.0840    7.2919 C.2     1  UNL1        0.2390
     13 O           9.3713   42.0753    8.5508 O.2     1  UNL1       -0.2738
     14 N          10.5215   41.9040    6.5154 N.am    1  UNL1       -0.2634
     15 H          10.4363   41.9459    5.5355 H       1  UNL1        0.1568
     16 C           8.0278   42.2978    6.6046 C.3     1  UNL1        0.1500
     17 S           6.9501   40.8456    6.8120 S.3     1  UNL1       -0.0673
     18 C           8.7066   38.6056    6.7808 C.3     1  UNL1        0.0845
     19 C           8.1127   39.7375    6.0163 C.2     1  UNL1        0.1996
     20 O           8.4101   39.9033    4.8450 O.2     1  UNL1       -0.2845
     21 C          14.8211   40.0417    8.9497 C.2     1  UNL1        0.2030
     22 O          16.0184   40.4376    8.9570 O.2     1  UNL1       -0.2860
     23 C          14.4779   38.7668    9.6180 C.ar    1  UNL1        0.0395
     24 C          14.1603   38.7569   10.9851 C.ar    1  UNL1        0.0032
     25 C          13.8162   37.5629   11.6257 C.ar    1  UNL1        0.0001
     26 C          13.7813   36.3676   10.9034 C.ar    1  UNL1        0.0000
     27 C          14.0881   36.3665    9.5406 C.ar    1  UNL1        0.0001
     28 C          14.4319   37.5608    8.9009 C.ar    1  UNL1        0.0032
@<TRIPOS>BOND
     1    18    19    1
     2    19    17    1
     3    16    17    1
     4    16    12    1
     5    12    14   am
     6     1     4   ar
     7     2     5   ar
     8     2     6    1
     9     3     4   ar
    10     3    21    1
    11    21    23    1
    12    24    25   ar
    13    26    27   ar
    14    28    23   ar
    15     7     8   ar
    16     9    10   ar
    17    11     6   ar
    18    14     1    1
    19    19    20    2
    20    12    13    2
    21     1     5   ar
    22     2     3   ar
    23    21    22    2
    24    23    24   ar
    25    25    26   ar
    26    27    28   ar
    27     6     7   ar
    28     8     9   ar
    29    10    11   ar
    30    14    15    1
@<TRIPOS>MOLECULE
MolPort-009-692-422 9320458 CSSS03437188557 MCULE-7610529004 PubChem-16949111 ZINC000009320458 ZINC09320458
 28 30 0 0 0
SMALL
GASTEIGER

@<TRIPOS>ATOM
      1 C          11.2096   41.3460    9.8208 C.ar    1  UNL1        0.1656
      2 C           9.1966   42.2426    9.3570 C.ar    1  UNL1        0.0923
      3 C           8.9049   41.6440   10.5970 C.ar    1  UNL1        0.0886
      4 S          10.3082   40.8935   11.1575 S.2     1  UNL1       -0.0482
      5 N          10.4826   42.0670    8.9412 N.ar    1  UNL1       -0.2238
      6 C           8.2282   42.9634    8.5014 C.ar    1  UNL1        0.0183
      7 C           7.9155   42.5121    7.2100 C.ar    1  UNL1        0.0015
      8 C           7.0277   43.2287    6.4026 C.ar    1  UNL1        0.0000
      9 C           6.4527   44.4107    6.8755 C.ar    1  UNL1        0.0000
     10 C           6.7694   44.8781    8.1533 C.ar    1  UNL1        0.0000
     11 C           7.6574   44.1602    8.9599 C.ar    1  UNL1        0.0015
     12 C          13.3407   40.1484   10.5011 C.2     1  UNL1        0.2390
     13 O          12.8026   39.5932   11.4955 O.2     1  UNL1       -0.2738
     14 N          12.5873   41.0073    9.6383 N.am    1  UNL1       -0.2634
     15 H          13.0523   41.3937    8.8613 H       1  UNL1        0.1568
     16 C          14.7805   39.8945   10.2153 C.3     1  UNL1        0.1500
     17 S          15.3887   38.4867   11.1960 S.3     1  UNL1       -0.0673
     18 C          13.8186   36.1937   10.5791 C.3     1  UNL1        0.0845
     19 C          14.7103   37.2712   10.0670 C.2     1  UNL1        0.1996
     20 O          14.9698   37.3319    8.8767 O.2     1  UNL1       -0.2845
     21 C           7.6681   41.7794   11.3949 C.2     1  UNL1        0.2030
     22 O           7.7629   42.0633   12.6200 O.2     1  UNL1       -0.2860
     23 C           6.3285   41.5590   10.8062 C.ar    1  UNL1        0.0395
     24 C           5.1785   41.8757   11.5456 C.ar    1  UNL1        0.0032
     25 C           3.9067   41.6900   10.9954 C.ar    1  UNL1        0.0001
     26 C           3.7733   41.1903    9.6977 C.ar    1  UNL1        0.0000
     27 C           4.9110   40.8787    8.9494 C.ar    1  UNL1        0.0001
     28 C           6.1821   41.0648    9.5003 C.ar    1  UNL1        0.0032
@<TRIPOS>BOND
     1    18    19    1
     2    19    17    1
     3    16    17    1
     4    16    12    1
     5    12    14   am
     6     1     4   ar
     7     2     5   ar
     8     2     6    1
     9     3     4   ar
    10     3    21    1
    11    21    23    1
    12    24    25   ar
    13    26    27   ar
    14    28    23   ar
    15     7     8   ar
    16     9    10   ar
    17    11     6   ar
    18    14     1    1
    19    19    20    2
    20    12    13    2
    21     1     5   ar
    22     2     3   ar
    23    21    22    2
    24    23    24   ar
    25    25    26   ar
    26    27    28   ar
    27     6     7   ar
    28     8     9   ar
    29    10    11   ar
    30    14    15    1
@<TRIPOS>MOLECULE
MolPort-009-692-422 9320458 CSSS03437188557 MCULE-7610529004 PubChem-16949111 ZINC000009320458 ZINC09320458
 28 30 0 0 0
SMALL
GASTEIGER

@<TRIPOS>ATOM
      1 C          11.0839   41.2395    9.7812 C.ar    1  UNL1        0.1656
      2 C           9.1068   42.2198    9.3326 C.ar    1  UNL1        0.0923
      3 C           8.7854   41.5943   10.5519 C.ar    1  UNL1        0.0886
      4 S          10.1576   40.7783   11.0977 S.2     1  UNL1       -0.0482
      5 N          10.3889   42.0120    8.9196 N.ar    1  UNL1       -0.2238
      6 C           8.1703   42.9999    8.4936 C.ar    1  UNL1        0.0183
      7 C           7.5578   44.1678    8.9733 C.ar    1  UNL1        0.0015
      8 C           6.6460   44.8692    8.1794 C.ar    1  UNL1        0.0000
      9 C           6.3293   44.4021    6.9015 C.ar    1  UNL1        0.0000
     10 C           6.9207   43.2316    6.4201 C.ar    1  UNL1        0.0000
     11 C           7.8327   42.5312    7.2152 C.ar    1  UNL1        0.0015
     12 C          13.3400   41.4385    8.6370 C.2     1  UNL1        0.2390
     13 O          12.9637   42.3791    7.8886 O.2     1  UNL1       -0.2738
     14 N          12.4503   40.8584    9.5970 N.am    1  UNL1       -0.2634
     15 H          12.8055   40.1437   10.1735 H       1  UNL1        0.1568
     16 C          14.7371   40.9334    8.5265 C.3     1  UNL1        0.1500
     17 S          15.1544   39.8880    9.9571 S.3     1  UNL1       -0.0673
     18 C          17.8986   39.2249   10.3223 C.3     1  UNL1        0.0845
     19 C          16.9104   40.2205    9.8215 C.2     1  UNL1        0.1996
     20 O          17.2975   41.2575    9.3092 O.2     1  UNL1       -0.2845
     21 C           7.5482   41.7486   11.3459 C.2     1  UNL1        0.2030
     22 O           7.6440   41.9888   12.5802 O.2     1  UNL1       -0.2860
     23 C           6.2061   41.5963   10.7416 C.ar    1  UNL1        0.0395
     24 C           6.0770   41.0657    9.4487 C.ar    1  UNL1        0.0032
     25 C           4.8143   40.8989    8.8722 C.ar    1  UNL1        0.0001
     26 C           3.6679   41.2566    9.5859 C.ar    1  UNL1        0.0000
     27 C           3.7837   41.7786   10.8764 C.ar    1  UNL1        0.0001
     28 C           5.0465   41.9449   11.4520 C.ar    1  UNL1        0.0032
@<TRIPOS>BOND
     1    18    19    1
     2    19    17    1
     3    16    17    1
     4    16    12    1
     5    12    14   am
     6     1     4   ar
     7     2     5   ar
     8     2     6    1
     9     3     4   ar
    10     3    21    1
    11    21    23    1
    12    24    25   ar
    13    26    27   ar
    14    28    23   ar
    15     7     8   ar
    16     9    10   ar
    17    11     6   ar
    18    14     1    1
    19    19    20    2
    20    12    13    2
    21     1     5   ar
    22     2     3   ar
    23    21    22    2
    24    23    24   ar
    25    25    26   ar
    26    27    28   ar
    27     6     7   ar
    28     8     9   ar
    29    10    11   ar
    30    14    15    1
@<TRIPOS>MOLECULE
MolPort-009-692-422 9320458 CSSS03437188557 MCULE-7610529004 PubChem-16949111 ZINC000009320458 ZINC09320458
 28 30 0 0 0
SMALL
GASTEIGER

@<TRIPOS>ATOM
      1 C          10.4772   40.9408    8.5805 C.ar    1  UNL1        0.1656
      2 C          12.4296   40.0511    9.2644 C.ar    1  UNL1        0.0923
      3 C          12.9130   40.9739    8.3180 C.ar    1  UNL1        0.0886
      4 S          11.5898   41.7864    7.6578 S.2     1  UNL1       -0.0482
      5 N          11.0732   40.0466    9.3974 N.ar    1  UNL1       -0.2238
      6 C          13.2579   39.1009   10.0394 C.ar    1  UNL1        0.0183
      7 C          13.4784   37.7892    9.5920 C.ar    1  UNL1        0.0015
      8 C          14.2315   36.8947   10.3577 C.ar    1  UNL1        0.0000
      9 C          14.7619   37.3008   11.5846 C.ar    1  UNL1        0.0000
     10 C          14.5350   38.5992   12.0474 C.ar    1  UNL1        0.0000
     11 C          13.7817   39.4929   11.2804 C.ar    1  UNL1        0.0015
     12 C           8.2868   41.8442    9.4886 C.2     1  UNL1        0.2390
     13 O           8.8312   42.3655   10.4977 O.2     1  UNL1       -0.2738
     14 N           9.0635   41.1469    8.5087 N.am    1  UNL1       -0.2634
     15 H           8.5892   40.7818    7.7271 H       1  UNL1        0.1568
     16 C           6.8131   41.9685    9.3097 C.3     1  UNL1        0.1500
     17 S           6.2946   41.2195    7.7337 S.3     1  UNL1       -0.0673
     18 C           6.2595   43.9704    7.0022 C.3     1  UNL1        0.0845
     19 C           6.8465   42.6223    6.7642 C.2     1  UNL1        0.1996
     20 O           7.7109   42.4761    5.9161 O.2     1  UNL1       -0.2845
     21 C          14.3204   41.3382    8.0509 C.2     1  UNL1        0.2030
     22 O          15.2367   40.6171    8.5314 O.2     1  UNL1       -0.2860
     23 C          14.6829   42.5396    7.2667 C.ar    1  UNL1        0.0395
     24 C          15.9040   43.1888    7.5056 C.ar    1  UNL1        0.0032
     25 C          16.2680   44.3139    6.7598 C.ar    1  UNL1        0.0001
     26 C          15.4159   44.7975    5.7640 C.ar    1  UNL1        0.0000
     27 C          14.2014   44.1549    5.5122 C.ar    1  UNL1        0.0001
     28 C          13.8384   43.0300    6.2582 C.ar    1  UNL1        0.0032
@<TRIPOS>BOND
     1    18    19    1
     2    19    17    1
     3    16    17    1
     4    16    12    1
     5    12    14   am
     6     1     4   ar
     7     2     5   ar
     8     2     6    1
     9     3     4   ar
    10     3    21    1
    11    21    23    1
    12    24    25   ar
    13    26    27   ar
    14    28    23   ar
    15     7     8   ar
    16     9    10   ar
    17    11     6   ar
    18    14     1    1
    19    19    20    2
    20    12    13    2
    21     1     5   ar
    22     2     3   ar
    23    21    22    2
    24    23    24   ar
    25    25    26   ar
    26    27    28   ar
    27     6     7   ar
    28     8     9   ar
    29    10    11   ar
    30    14    15    1
@<TRIPOS>MOLECULE
MolPort-009-692-422 9320458 CSSS03437188557 MCULE-7610529004 PubChem-16949111 ZINC000009320458 ZINC09320458
 28 30 0 0 0
SMALL
GASTEIGER

@<TRIPOS>ATOM
      1 C          10.9481   41.4558    7.9675 C.ar    1  UNL1        0.1656
      2 C          12.5997   40.3085    8.9809 C.ar    1  UNL1        0.0923
      3 C          13.3714   41.1473    8.1549 C.ar    1  UNL1        0.0886
      4 S          12.3170   42.1306    7.2785 S.2     1  UNL1       -0.0482
      5 N          11.2546   40.4941    8.8637 N.ar    1  UNL1       -0.2238
      6 C          13.1323   39.2587    9.8773 C.ar    1  UNL1        0.0183
      7 C          13.0710   37.9004    9.5303 C.ar    1  UNL1        0.0015
      8 C          13.5442   36.9209   10.4080 C.ar    1  UNL1        0.0000
      9 C          14.0731   37.2906   11.6471 C.ar    1  UNL1        0.0000
     10 C          14.1240   38.6387   12.0098 C.ar    1  UNL1        0.0000
     11 C          13.6505   39.6173   11.1307 C.ar    1  UNL1        0.0015
     12 C           8.7067   42.4943    8.5477 C.2     1  UNL1        0.2390
     13 O           9.0566   42.7803    9.7234 O.2     1  UNL1       -0.2738
     14 N           9.6138   41.8561    7.6424 N.am    1  UNL1       -0.2634
     15 H           9.2955   41.6795    6.7277 H       1  UNL1        0.1568
     16 C           7.3306   42.8387    8.0927 C.3     1  UNL1        0.1500
     17 S           6.2520   41.3735    8.1515 S.3     1  UNL1       -0.0673
     18 C           6.9563   39.3614    6.2649 C.3     1  UNL1        0.0845
     19 C           6.7467   40.8134    6.5224 C.2     1  UNL1        0.1996
     20 O           6.9017   41.6199    5.6206 O.2     1  UNL1       -0.2845
     21 C          14.8405   41.3098    8.1559 C.2     1  UNL1        0.2030
     22 O          15.5462   40.4572    8.7606 O.2     1  UNL1       -0.2860
     23 C          15.5015   42.4587    7.4981 C.ar    1  UNL1        0.0395
     24 C          16.7329   42.9280    7.9811 C.ar    1  UNL1        0.0032
     25 C          17.3779   44.0007    7.3584 C.ar    1  UNL1        0.0001
     26 C          16.7995   44.6112    6.2429 C.ar    1  UNL1        0.0000
     27 C          15.5780   44.1478    5.7486 C.ar    1  UNL1        0.0001
     28 C          14.9339   43.0752    6.3717 C.ar    1  UNL1        0.0032
@<TRIPOS>BOND
     1    18    19    1
     2    19    17    1
     3    16    17    1
     4    16    12    1
     5    12    14   am
     6     1     4   ar
     7     2     5   ar
     8     2     6    1
     9     3     4   ar
    10     3    21    1
    11    21    23    1
    12    24    25   ar
    13    26    27   ar
    14    28    23   ar
    15     7     8   ar
    16     9    10   ar
    17    11     6   ar
    18    14     1    1
    19    19    20    2
    20    12    13    2
    21     1     5   ar
    22     2     3   ar
    23    21    22    2
    24    23    24   ar
    25    25    26   ar
    26    27    28   ar
    27     6     7   ar
    28     8     9   ar
    29    10    11   ar
    30    14    15    1
@<TRIPOS>MOLECULE
MolPort-009-692-422 9320458 CSSS03437188557 MCULE-7610529004 PubChem-16949111 ZINC000009320458 ZINC09320458
 28 30 0 0 0
SMALL
GASTEIGER

@<TRIPOS>ATOM
      1 C          10.2416   41.1946    7.9011 C.ar    1  UNL1        0.1656
      2 C          12.0170   40.2342    8.8995 C.ar    1  UNL1        0.0923
      3 C          12.6855   41.0270    7.9479 C.ar    1  UNL1        0.0886
      4 S          11.5233   41.8675    7.0594 S.2     1  UNL1       -0.0482
      5 N          10.6588   40.3401    8.8592 N.ar    1  UNL1       -0.2238
      6 C          12.6644   39.3035    9.8503 C.ar    1  UNL1        0.0183
      7 C          13.3091   39.7699   11.0062 C.ar    1  UNL1        0.0015
      8 C          13.9487   38.8781   11.8718 C.ar    1  UNL1        0.0000
      9 C          13.9593   37.5114   11.5830 C.ar    1  UNL1        0.0000
     10 C          13.3348   37.0377   10.4266 C.ar    1  UNL1        0.0000
     11 C          12.6953   37.9309    9.5619 C.ar    1  UNL1        0.0015
     12 C           8.0659   42.4036    8.3942 C.2     1  UNL1        0.2390
     13 O           8.5513   43.0424    9.3652 O.2     1  UNL1       -0.2738
     14 N           8.8688   41.4945    7.6336 N.am    1  UNL1       -0.2634
     15 H           8.4443   41.0419    6.8692 H       1  UNL1        0.1568
     16 C           6.6368   42.6100    8.0274 C.3     1  UNL1        0.1500
     17 S           5.5653   42.3934    9.4830 S.3     1  UNL1       -0.0673
     18 C           4.6109   44.5146    7.8417 C.3     1  UNL1        0.0845
     19 C           4.2726   43.4424    8.8187 C.2     1  UNL1        0.1996
     20 O           3.1135   43.2720    9.1581 O.2     1  UNL1       -0.2845
     21 C          14.1402   41.2621    7.8320 C.2     1  UNL1        0.2030
     22 O          14.9343   40.4052    8.3068 O.2     1  UNL1       -0.2860
     23 C          14.6880   42.4862    7.2065 C.ar    1  UNL1        0.0395
     24 C          13.9490   43.1594    6.2215 C.ar    1  UNL1        0.0032
     25 C          14.4457   44.3273    5.6350 C.ar    1  UNL1        0.0001
     26 C          15.6846   44.8360    6.0322 C.ar    1  UNL1        0.0000
     27 C          16.4256   44.1787    7.0172 C.ar    1  UNL1        0.0001
     28 C          15.9282   43.0112    7.6031 C.ar    1  UNL1        0.0032
@<TRIPOS>BOND
     1    18    19    1
     2    19    17    1
     3    16    17    1
     4    16    12    1
     5    12    14   am
     6     1     4   ar
     7     2     5   ar
     8     2     6    1
     9     3     4   ar
    10     3    21    1
    11    21    23    1
    12    24    25   ar
    13    26    27   ar
    14    28    23   ar
    15     7     8   ar
    16     9    10   ar
    17    11     6   ar
    18    14     1    1
    19    19    20    2
    20    12    13    2
    21     1     5   ar
    22     2     3   ar
    23    21    22    2
    24    23    24   ar
    25    25    26   ar
    26    27    28   ar
    27     6     7   ar
    28     8     9   ar
    29    10    11   ar
    30    14    15    1
@<TRIPOS>MOLECULE
MolPort-009-692-422 9320458 CSSS03437188557 MCULE-7610529004 PubChem-16949111 ZINC000009320458 ZINC09320458
 28 30 0 0 0
SMALL
GASTEIGER

@<TRIPOS>ATOM
      1 C          18.4938   40.4430    3.9771 C.ar    1  UNL1        0.1656
      2 C          17.7071   42.0126    5.3872 C.ar    1  UNL1        0.0923
      3 C          16.9778   42.3508    4.2319 C.ar    1  UNL1        0.0886
      4 S          17.4110   41.2741    3.0072 S.2     1  UNL1       -0.0482
      5 N          18.5447   40.9495    5.2273 N.ar    1  UNL1       -0.2238
      6 C          17.6605   42.7379    6.6761 C.ar    1  UNL1        0.0183
      7 C          16.5822   42.5873    7.5615 C.ar    1  UNL1        0.0015
      8 C          16.5378   43.3111    8.7564 C.ar    1  UNL1        0.0000
      9 C          17.5669   44.2016    9.0718 C.ar    1  UNL1        0.0000
     10 C          18.6370   44.3717    8.1901 C.ar    1  UNL1        0.0000
     11 C          18.6802   43.6469    6.9954 C.ar    1  UNL1        0.0015
     12 C          18.7328   38.0542    3.1554 C.2     1  UNL1        0.2390
     13 O          17.4912   37.8433    3.1703 O.2     1  UNL1       -0.2738
     14 N          19.2695   39.3277    3.5292 N.am    1  UNL1       -0.2634
     15 H          20.2455   39.4446    3.4739 H       1  UNL1        0.1568
     16 C          19.6525   36.9624    2.7294 C.3     1  UNL1        0.1500
     17 S          18.7103   35.5626    2.0463 S.3     1  UNL1       -0.0673
     18 C          18.3926   33.2225    3.6359 C.3     1  UNL1        0.0845
     19 C          18.6814   34.6834    3.6080 C.2     1  UNL1        0.1996
     20 O          18.9090   35.2788    4.6479 O.2     1  UNL1       -0.2845
     21 C          15.8826   43.3363    4.1131 C.2     1  UNL1        0.2030
     22 O          15.0712   43.2308    3.1534 O.2     1  UNL1       -0.2860
     23 C          15.7324   44.4584    5.0660 C.ar    1  UNL1        0.0395
     24 C          16.8689   45.1366    5.5330 C.ar    1  UNL1        0.0032
     25 C          16.7411   46.2103    6.4193 C.ar    1  UNL1        0.0001
     26 C          15.4743   46.6194    6.8428 C.ar    1  UNL1        0.0000
     27 C          14.3355   45.9568    6.3786 C.ar    1  UNL1        0.0001
     28 C          14.4642   44.8835    5.4926 C.ar    1  UNL1        0.0032
@<TRIPOS>BOND
     1    18    19    1
     2    19    17    1
     3    16    17    1
     4    16    12    1
     5    12    14   am
     6     1     4   ar
     7     2     5   ar
     8     2     6    1
     9     3     4   ar
    10     3    21    1
    11    21    23    1
    12    24    25   ar
    13    26    27   ar
    14    28    23   ar
    15     7     8   ar
    16     9    10   ar
    17    11     6   ar
    18    14     1    1
    19    19    20    2
    20    12    13    2
    21     1     5   ar
    22     2     3   ar
    23    21    22    2
    24    23    24   ar
    25    25    26   ar
    26    27    28   ar
    27     6     7   ar
    28     8     9   ar
    29    10    11   ar
    30    14    15    1
@<TRIPOS>MOLECULE
MolPort-009-692-422 9320458 CSSS03437188557 MCULE-7610529004 PubChem-16949111 ZINC000009320458 ZINC09320458
 28 30 0 0 0
SMALL
GASTEIGER

@<TRIPOS>ATOM
      1 C          10.2660   41.4449    7.8432 C.ar    1  UNL1        0.1656
      2 C          12.4795   41.8185    7.6644 C.ar    1  UNL1        0.0923
      3 C          12.4841   40.8951    8.7267 C.ar    1  UNL1        0.0886
      4 S          10.8863   40.4551    9.0430 S.2     1  UNL1       -0.0482
      5 N          11.2378   42.1122    7.1855 N.ar    1  UNL1       -0.2238
      6 C          13.6727   42.4921    7.1058 C.ar    1  UNL1        0.0183
      7 C          13.5746   43.3647    6.0112 C.ar    1  UNL1        0.0015
      8 C          14.7187   43.9610    5.4734 C.ar    1  UNL1        0.0000
      9 C          15.9740   43.6806    6.0186 C.ar    1  UNL1        0.0000
     10 C          16.0851   42.8007    7.0979 C.ar    1  UNL1        0.0000
     11 C          14.9399   42.2053    7.6350 C.ar    1  UNL1        0.0015
     12 C           7.9463   42.3709    8.2907 C.2     1  UNL1        0.2390
     13 O           8.3311   43.0762    9.2607 O.2     1  UNL1       -0.2738
     14 N           8.8705   41.5642    7.5525 N.am    1  UNL1       -0.2634
     15 H           8.5193   41.0534    6.7877 H       1  UNL1        0.1568
     16 C           6.5085   42.3893    7.9012 C.3     1  UNL1        0.1500
     17 S           5.4452   42.3198    9.3771 S.3     1  UNL1       -0.0673
     18 C           4.7919   44.6300    7.8473 C.3     1  UNL1        0.0845
     19 C           4.3008   43.5432    8.7397 C.2     1  UNL1        0.1996
     20 O           3.1172   43.4804    9.0276 O.2     1  UNL1       -0.2845
     21 C          13.6560   40.2519    9.3573 C.2     1  UNL1        0.2030
     22 O          14.6897   40.9434    9.5668 O.2     1  UNL1       -0.2860
     23 C          13.6619   38.8167    9.7176 C.ar    1  UNL1        0.0395
     24 C          13.7176   37.8423    8.7090 C.ar    1  UNL1        0.0032
     25 C          13.7423   36.4831    9.0351 C.ar    1  UNL1        0.0001
     26 C          13.7168   36.0855   10.3741 C.ar    1  UNL1        0.0000
     27 C          13.6691   37.0465   11.3867 C.ar    1  UNL1        0.0001
     28 C          13.6445   38.4052   11.0597 C.ar    1  UNL1        0.0032
@<TRIPOS>BOND
     1    18    19    1
     2    19    17    1
     3    16    17    1
     4    16    12    1
     5    12    14   am
     6     1     4   ar
     7     2     5   ar
     8     2     6    1
     9     3     4   ar
    10     3    21    1
    11    21    23    1
    12    24    25   ar
    13    26    27   ar
    14    28    23   ar
    15     7     8   ar
    16     9    10   ar
    17    11     6   ar
    18    14     1    1
    19    19    20    2
    20    12    13    2
    21     1     5   ar
    22     2     3   ar
    23    21    22    2
    24    23    24   ar
    25    25    26   ar
    26    27    28   ar
    27     6     7   ar
    28     8     9   ar
    29    10    11   ar
    30    14    15    1
@<TRIPOS>MOLECULE
MolPort-009-692-422 9320458 CSSS03437188557 MCULE-7610529004 PubChem-16949111 ZINC000009320458 ZINC09320458
 28 30 0 0 0
SMALL
GASTEIGER

@<TRIPOS>ATOM
      1 C           7.6218   41.6220    7.7328 C.ar    1  UNL1        0.1656
      2 C           9.8351   41.3945    7.3856 C.ar    1  UNL1        0.0923
      3 C           9.3663   41.1217    6.0868 C.ar    1  UNL1        0.0886
      4 S           7.6834   41.2425    6.1030 S.2     1  UNL1       -0.0482
      5 N           8.8515   41.6707    8.2875 N.ar    1  UNL1       -0.2238
      6 C          11.2499   41.3472    7.8163 C.ar    1  UNL1        0.0183
      7 C          12.2055   42.2280    7.2869 C.ar    1  UNL1        0.0015
      8 C          13.5447   42.1417    7.6777 C.ar    1  UNL1        0.0000
      9 C          13.9431   41.1651    8.5936 C.ar    1  UNL1        0.0000
     10 C          13.0033   40.2724    9.1146 C.ar    1  UNL1        0.0000
     11 C          11.6640   40.3601    8.7231 C.ar    1  UNL1        0.0015
     12 C           6.3111   42.0340    9.8661 C.2     1  UNL1        0.2390
     13 O           7.3385   42.0057   10.5942 O.2     1  UNL1       -0.2738
     14 N           6.4070   41.8663    8.4476 N.am    1  UNL1       -0.2634
     15 H           5.5747   41.9234    7.9249 H       1  UNL1        0.1568
     16 C           4.9789   42.2581   10.4940 C.3     1  UNL1        0.1500
     17 S           3.8981   43.2082    9.3792 S.3     1  UNL1       -0.0673
     18 C           5.4749   44.0923    7.1802 C.3     1  UNL1        0.0845
     19 C           5.2646   44.1137    8.6546 C.2     1  UNL1        0.1996
     20 O           6.0171   44.7568    9.3673 O.2     1  UNL1       -0.2845
     21 C          10.1676   40.9441    4.8576 C.2     1  UNL1        0.2030
     22 O          10.7011   41.9567    4.3279 O.2     1  UNL1       -0.2860
     23 C          10.3329   39.6214    4.2151 C.ar    1  UNL1        0.0395
     24 C           9.2101   38.9359    3.7261 C.ar    1  UNL1        0.0032
     25 C           9.3531   37.6938    3.1004 C.ar    1  UNL1        0.0001
     26 C          10.6218   37.1279    2.9531 C.ar    1  UNL1        0.0000
     27 C          11.7474   37.8045    3.4290 C.ar    1  UNL1        0.0001
     28 C          11.6035   39.0462    4.0544 C.ar    1  UNL1        0.0032
@<TRIPOS>BOND
     1    18    19    1
     2    19    17    1
     3    16    17    1
     4    16    12    1
     5    12    14   am
     6     1     4   ar
     7     2     5   ar
     8     2     6    1
     9     3     4   ar
    10     3    21    1
    11    21    23    1
    12    24    25   ar
    13    26    27   ar
    14    28    23   ar
    15     7     8   ar
    16     9    10   ar
    17    11     6   ar
    18    14     1    1
    19    19    20    2
    20    12    13    2
    21     1     5   ar
    22     2     3   ar
    23    21    22    2
    24    23    24   ar
    25    25    26   ar
    26    27    28   ar
    27     6     7   ar
    28     8     9   ar
    29    10    11   ar
    30    14    15    1
@<TRIPOS>MOLECULE
MolPort-009-692-422 9320458 CSSS03437188557 MCULE-7610529004 PubChem-16949111 ZINC000009320458 ZINC09320458
 28 30 0 0 0
SMALL
GASTEIGER

@<TRIPOS>ATOM
      1 C          10.3604   41.1714    8.4624 C.ar    1  UNL1        0.1656
      2 C          12.2018   40.1532    9.2645 C.ar    1  UNL1        0.0923
      3 C          12.7950   40.9656    8.2800 C.ar    1  UNL1        0.0886
      4 S          11.5718   41.8513    7.5275 S.2     1  UNL1       -0.0482
      5 N          10.8478   40.2808    9.3520 N.ar    1  UNL1       -0.2238
      6 C          12.9164   39.1831   10.1235 C.ar    1  UNL1        0.0183
      7 C          13.6272   39.5976   11.2603 C.ar    1  UNL1        0.0015
      8 C          14.3282   38.6708   12.0368 C.ar    1  UNL1        0.0000
      9 C          14.3345   37.3210   11.6766 C.ar    1  UNL1        0.0000
     10 C          13.6439   36.8997   10.5377 C.ar    1  UNL1        0.0000
     11 C          12.9429   37.8279    9.7621 C.ar    1  UNL1        0.0015
     12 C           7.9852   40.6548    7.7342 C.2     1  UNL1        0.2390
     13 O           8.2851   39.5111    7.3000 O.2     1  UNL1       -0.2738
     14 N           8.9745   41.5003    8.3310 N.am    1  UNL1       -0.2634
     15 H           8.6788   42.3734    8.6767 H       1  UNL1        0.1568
     16 C           6.5754   41.1257    7.6343 C.3     1  UNL1        0.1500
     17 S           6.2758   42.4977    8.7925 S.3     1  UNL1       -0.0673
     18 C           6.2004   41.3575   11.3998 C.3     1  UNL1        0.0845
     19 C           5.5788   41.4251   10.0479 C.2     1  UNL1        0.1996
     20 O           4.5885   40.7577    9.7994 O.2     1  UNL1       -0.2845
     21 C          14.2370   41.1823    8.0385 C.2     1  UNL1        0.2030
     22 O          15.0622   40.3433    8.4917 O.2     1  UNL1       -0.2860
     23 C          14.7393   42.3693    7.3114 C.ar    1  UNL1        0.0395
     24 C          15.9554   42.9587    7.6899 C.ar    1  UNL1        0.0032
     25 C          16.4514   44.0692    7.0005 C.ar    1  UNL1        0.0001
     26 C          15.7378   44.5977    5.9220 C.ar    1  UNL1        0.0000
     27 C          14.5300   44.0147    5.5314 C.ar    1  UNL1        0.0001
     28 C          14.0350   42.9044    6.2212 C.ar    1  UNL1        0.0032
@<TRIPOS>BOND
     1    18    19    1
     2    19    17    1
     3    16    17    1
     4    16    12    1
     5    12    14   am
     6     1     4   ar
     7     2     5   ar
     8     2     6    1
     9     3     4   ar
    10     3    21    1
    11    21    23    1
    12    24    25   ar
    13    26    27   ar
    14    28    23   ar
    15     7     8   ar
    16     9    10   ar
    17    11     6   ar
    18    14     1    1
    19    19    20    2
    20    12    13    2
    21     1     5   ar
    22     2     3   ar
    23    21    22    2
    24    23    24   ar
    25    25    26   ar
    26    27    28   ar
    27     6     7   ar
    28     8     9   ar
    29    10    11   ar
    30    14    15    1
