@<TRIPOS>MOLECULE
MolPort-010-852-238 41108816 ChemDiv-G952-1562 MCULE-1534031103 PubChem-52103591 ZINC000041108816
 28 31 0 0 0
SMALL
GASTEIGER

@<TRIPOS>ATOM
      1 N          11.9924   41.4777    8.8647 N.am    1  UNL1       -0.2597
      2 C          11.1822   42.1216    9.8539 C.2     1  UNL1        0.2721
      3 O          11.0815   43.3753    9.9025 O.2     1  UNL1       -0.2707
      4 H          12.0537   40.4962    8.9119 H       1  UNL1        0.1569
      5 N          14.3952   43.1766    6.8901 N.ar    1  UNL1       -0.1881
      6 N          13.9533   42.6659    8.0275 N.ar    1  UNL1       -0.1400
      7 N          14.1458   43.6758    4.7560 N.ar    1  UNL1       -0.1202
      8 N          15.3216   44.1671    5.1688 N.ar    1  UNL1       -0.1310
      9 C          12.7227   42.1198    7.8131 C.ar    1  UNL1        0.1880
     10 C          13.6240   43.0819    5.8423 C.ar    1  UNL1        0.2195
     11 C          15.4701   43.8520    6.4853 C.ar    1  UNL1        0.1639
     12 S          12.1841   42.2955    6.1755 S.2     1  UNL1       -0.0111
     13 C          16.6145   44.2573    7.3641 C.3     1  UNL1        0.0606
     14 C          16.6076   43.5254    8.7115 C.3     1  UNL1        0.0076
     15 C          17.0732   42.0759    8.5725 C.3     1  UNL1        0.0004
     16 C          18.4517   42.0220    7.9237 C.3     1  UNL1        0.0000
     17 C          18.4012   42.6623    6.5410 C.3     1  UNL1        0.0004
     18 C          17.9639   44.1225    6.6502 C.3     1  UNL1        0.0076
     19 C          10.4263   41.2890   10.8313 C.3     1  UNL1        0.2897
     20 O           9.2777   41.9920   11.2949 O.3     1  UNL1       -0.4656
     21 C           7.9792   41.7253   10.8456 C.ar    1  UNL1        0.1395
     22 C           7.7397   41.6607    9.4696 C.ar    1  UNL1        0.0400
     23 C           6.4541   41.3964    8.9887 C.ar    1  UNL1        0.0400
     24 C           5.3912   41.1934    9.8834 C.ar    1  UNL1        0.1389
     25 C           5.6302   41.2606   11.2594 C.ar    1  UNL1        0.0400
     26 C           6.9151   41.5264   11.7398 C.ar    1  UNL1        0.0400
     27 C           3.0312   41.8572    9.5555 C.3     1  UNL1        0.2525
     28 O           4.0957   40.9237    9.4341 O.3     1  UNL1       -0.4714
@<TRIPOS>BOND
     1     5     6   ar
     2     7     8   ar
     3     1     2   am
     4     9    12   ar
     5     9     1    1
     6    10    12   ar
     7    10     5   ar
     8    11     5   ar
     9    13    11    1
    10    13    14    1
    11    14    15    1
    12    15    16    1
    13    16    17    1
    14    17    18    1
    15    18    13    1
    16    19     2    1
    17    19    20    1
    18    21    20    1
    19    22    23   ar
    20    24    25   ar
    21    24    28    1
    22    26    21   ar
    23    27    28    1
    24     9     6   ar
    25    10     7   ar
    26    11     8   ar
    27     2     3    2
    28    21    22   ar
    29    23    24   ar
    30    25    26   ar
    31     1     4    1
@<TRIPOS>MOLECULE
MolPort-010-852-238 41108816 ChemDiv-G952-1562 MCULE-1534031103 PubChem-52103591 ZINC000041108816
 28 31 0 0 0
SMALL
GASTEIGER

@<TRIPOS>ATOM
      1 N          12.6684   41.9566    5.5695 N.am    1  UNL1       -0.2597
      2 C          13.0558   43.0922    6.3505 C.2     1  UNL1        0.2721
      3 O          12.5090   43.3436    7.4559 O.2     1  UNL1       -0.2707
      4 H          13.1130   41.8450    4.6982 H       1  UNL1        0.1569
      5 N          10.6598   39.5615    7.2390 N.ar    1  UNL1       -0.1881
      6 N          11.6517   40.4348    7.1846 N.ar    1  UNL1       -0.1400
      7 N           9.0122   38.4296    6.3063 N.ar    1  UNL1       -0.1202
      8 N           9.1422   38.0164    7.5738 N.ar    1  UNL1       -0.1310
      9 C          11.6982   40.9665    5.9302 C.ar    1  UNL1        0.1880
     10 C           9.9589   39.3710    6.1556 C.ar    1  UNL1        0.2195
     11 C          10.1582   38.7216    8.1439 C.ar    1  UNL1        0.1639
     12 S          10.4835   40.3177    4.8784 S.2     1  UNL1       -0.0111
     13 C          10.6841   38.5395    9.5354 C.3     1  UNL1        0.0606
     14 C          11.6198   37.3306    9.6556 C.3     1  UNL1        0.0076
     15 C          12.9932   37.6131    9.0464 C.3     1  UNL1        0.0004
     16 C          13.6107   38.8528    9.6836 C.3     1  UNL1        0.0000
     17 C          12.7079   40.0599    9.4544 C.3     1  UNL1        0.0004
     18 C          11.3334   39.8178   10.0769 C.3     1  UNL1        0.0076
     19 C          14.1435   43.9812    5.8539 C.3     1  UNL1        0.2897
     20 O          15.0711   44.2578    6.8987 O.3     1  UNL1       -0.4656
     21 C          15.8930   43.2830    7.4758 C.ar    1  UNL1        0.1395
     22 C          15.2998   42.2046    8.1392 C.ar    1  UNL1        0.0400
     23 C          16.0928   41.2145    8.7262 C.ar    1  UNL1        0.0400
     24 C          17.4929   41.2938    8.6550 C.ar    1  UNL1        0.1389
     25 C          18.0861   42.3735    7.9938 C.ar    1  UNL1        0.0400
     26 C          17.2932   43.3640    7.4085 C.ar    1  UNL1        0.0400
     27 C          17.8757   39.4703   10.2816 C.3     1  UNL1        0.2525
     28 O          18.3128   40.3183    9.2284 O.3     1  UNL1       -0.4714
@<TRIPOS>BOND
     1     5     6   ar
     2     7     8   ar
     3     1     2   am
     4     9    12   ar
     5     9     1    1
     6    10    12   ar
     7    10     5   ar
     8    11     5   ar
     9    13    11    1
    10    13    14    1
    11    14    15    1
    12    15    16    1
    13    16    17    1
    14    17    18    1
    15    18    13    1
    16    19     2    1
    17    19    20    1
    18    21    20    1
    19    22    23   ar
    20    24    25   ar
    21    24    28    1
    22    26    21   ar
    23    27    28    1
    24     9     6   ar
    25    10     7   ar
    26    11     8   ar
    27     2     3    2
    28    21    22   ar
    29    23    24   ar
    30    25    26   ar
    31     1     4    1
@<TRIPOS>MOLECULE
MolPort-010-852-238 41108816 ChemDiv-G952-1562 MCULE-1534031103 PubChem-52103591 ZINC000041108816
 28 31 0 0 0
SMALL
GASTEIGER

@<TRIPOS>ATOM
      1 N           8.5469   42.2175    9.4778 N.am    1  UNL1       -0.2597
      2 C           9.3483   42.3923   10.6512 C.2     1  UNL1        0.2721
      3 O           9.0640   43.2634   11.5141 O.2     1  UNL1       -0.2707
      4 H           8.8521   41.5431    8.8288 H       1  UNL1        0.1569
      5 N           5.1933   43.2753    9.0390 N.ar    1  UNL1       -0.1881
      6 N           6.1141   42.4106    9.4313 N.ar    1  UNL1       -0.1400
      7 N           4.5844   45.1665    8.0808 N.ar    1  UNL1       -0.1202
      8 N           3.4785   44.4865    8.4106 N.ar    1  UNL1       -0.1310
      9 C           7.3452   42.9267    9.1544 C.ar    1  UNL1        0.1880
     10 C           5.5992   44.3851    8.4867 C.ar    1  UNL1        0.2195
     11 C           3.8620   43.3226    9.0045 C.ar    1  UNL1        0.1639
     12 S           7.2680   44.4828    8.3960 S.2     1  UNL1       -0.0111
     13 C           2.9486   42.2327    9.4776 C.3     1  UNL1        0.0606
     14 C           3.4848   40.8340    9.1497 C.3     1  UNL1        0.0076
     15 C           4.6339   40.4351   10.0758 C.3     1  UNL1        0.0004
     16 C           4.1970   40.5296   11.5333 C.3     1  UNL1        0.0000
     17 C           3.7708   41.9572   11.8571 C.3     1  UNL1        0.0004
     18 C           2.6036   42.3758   10.9639 C.3     1  UNL1        0.0076
     19 C          10.5297   41.5099   10.8647 C.3     1  UNL1        0.2897
     20 O          10.7996   40.7527    9.6890 O.3     1  UNL1       -0.4656
     21 C          11.9783   40.0226    9.4978 C.ar    1  UNL1        0.1395
     22 C          13.2069   40.6807    9.6090 C.ar    1  UNL1        0.0400
     23 C          14.4021   39.9800    9.4237 C.ar    1  UNL1        0.0400
     24 C          14.3798   38.6084    9.1240 C.ar    1  UNL1        0.1389
     25 C          13.1511   37.9509    9.0102 C.ar    1  UNL1        0.0400
     26 C          11.9564   38.6519    9.1940 C.ar    1  UNL1        0.0400
     27 C          16.3754   37.4519   10.0170 C.3     1  UNL1        0.2525
     28 O          15.5571   37.8794    8.9367 O.3     1  UNL1       -0.4714
@<TRIPOS>BOND
     1     5     6   ar
     2     7     8   ar
     3     1     2   am
     4     9    12   ar
     5     9     1    1
     6    10    12   ar
     7    10     5   ar
     8    11     5   ar
     9    13    11    1
    10    13    14    1
    11    14    15    1
    12    15    16    1
    13    16    17    1
    14    17    18    1
    15    18    13    1
    16    19     2    1
    17    19    20    1
    18    21    20    1
    19    22    23   ar
    20    24    25   ar
    21    24    28    1
    22    26    21   ar
    23    27    28    1
    24     9     6   ar
    25    10     7   ar
    26    11     8   ar
    27     2     3    2
    28    21    22   ar
    29    23    24   ar
    30    25    26   ar
    31     1     4    1
@<TRIPOS>MOLECULE
MolPort-010-852-238 41108816 ChemDiv-G952-1562 MCULE-1534031103 PubChem-52103591 ZINC000041108816
 28 31 0 0 0
SMALL
GASTEIGER

@<TRIPOS>ATOM
      1 N          12.9943   41.7068    6.3995 N.am    1  UNL1       -0.2597
      2 C          13.7403   42.9085    6.1781 C.2     1  UNL1        0.2721
      3 O          13.1758   43.9698    5.8049 O.2     1  UNL1       -0.2707
      4 H          13.5081   40.9062    6.6531 H       1  UNL1        0.1569
      5 N           9.4816   41.8004    6.8581 N.ar    1  UNL1       -0.1881
      6 N          10.7241   42.0826    7.2135 N.ar    1  UNL1       -0.1400
      7 N           8.0115   40.8337    5.5277 N.ar    1  UNL1       -0.1202
      8 N           7.3495   41.4039    6.5430 N.ar    1  UNL1       -0.1310
      9 C          11.5745   41.5537    6.2885 C.ar    1  UNL1        0.1880
     10 C           9.3050   41.1064    5.7679 C.ar    1  UNL1        0.2195
     11 C           8.2627   42.0014    7.3577 C.ar    1  UNL1        0.1639
     12 S          10.7491   40.7119    5.0185 S.2     1  UNL1       -0.0111
     13 C           7.9649   42.7070    8.6459 C.3     1  UNL1        0.0606
     14 C           7.5059   44.1541    8.4299 C.3     1  UNL1        0.0076
     15 C           6.0655   44.2229    7.9220 C.3     1  UNL1        0.0004
     16 C           5.1318   43.4855    8.8752 C.3     1  UNL1        0.0000
     17 C           5.5501   42.0236    8.9860 C.3     1  UNL1        0.0004
     18 C           6.9792   41.9215    9.5177 C.3     1  UNL1        0.0076
     19 C          15.2112   42.9072    6.4158 C.3     1  UNL1        0.2897
     20 O          15.4858   42.9343    7.8130 O.3     1  UNL1       -0.4656
     21 C          15.8313   41.7966    8.5513 C.ar    1  UNL1        0.1395
     22 C          14.8330   40.8740    8.8788 C.ar    1  UNL1        0.0400
     23 C          15.1455   39.7278    9.6152 C.ar    1  UNL1        0.0400
     24 C          16.4652   39.4922   10.0329 C.ar    1  UNL1        0.1389
     25 C          17.4630   40.4160    9.7076 C.ar    1  UNL1        0.0400
     26 C          17.1501   41.5626    8.9728 C.ar    1  UNL1        0.0400
     27 C          15.9069   37.7114   11.6561 C.3     1  UNL1        0.2525
     28 O          16.8100   38.3543   10.7670 O.3     1  UNL1       -0.4714
@<TRIPOS>BOND
     1     5     6   ar
     2     7     8   ar
     3     1     2   am
     4     9    12   ar
     5     9     1    1
     6    10    12   ar
     7    10     5   ar
     8    11     5   ar
     9    13    11    1
    10    13    14    1
    11    14    15    1
    12    15    16    1
    13    16    17    1
    14    17    18    1
    15    18    13    1
    16    19     2    1
    17    19    20    1
    18    21    20    1
    19    22    23   ar
    20    24    25   ar
    21    24    28    1
    22    26    21   ar
    23    27    28    1
    24     9     6   ar
    25    10     7   ar
    26    11     8   ar
    27     2     3    2
    28    21    22   ar
    29    23    24   ar
    30    25    26   ar
    31     1     4    1
@<TRIPOS>MOLECULE
MolPort-010-852-238 41108816 ChemDiv-G952-1562 MCULE-1534031103 PubChem-52103591 ZINC000041108816
 28 31 0 0 0
SMALL
GASTEIGER

@<TRIPOS>ATOM
      1 N          10.0721   40.8933    9.1427 N.am    1  UNL1       -0.2597
      2 C          10.4203   39.9253    8.1470 C.2     1  UNL1        0.2721
      3 O           9.7104   39.7570    7.1213 O.2     1  UNL1       -0.2707
      4 H          10.6533   40.9423    9.9359 H       1  UNL1        0.1569
      5 N           6.8636   42.3977    9.1370 N.ar    1  UNL1       -0.1881
      6 N           7.6760   41.3554    9.1943 N.ar    1  UNL1       -0.1400
      7 N           6.4860   44.5582    8.9013 N.ar    1  UNL1       -0.1202
      8 N           5.3054   43.9314    8.9876 N.ar    1  UNL1       -0.1310
      9 C           8.9621   41.7974    9.0994 C.ar    1  UNL1        0.1880
     10 C           7.4003   43.5786    8.9992 C.ar    1  UNL1        0.2195
     11 C           5.5464   42.5994    9.1365 C.ar    1  UNL1        0.1639
     12 S           9.0719   43.5183    8.9288 S.2     1  UNL1       -0.0111
     13 C           4.5094   41.5200    9.2127 C.3     1  UNL1        0.0606
     14 C           4.8450   40.4571   10.2657 C.3     1  UNL1        0.0076
     15 C           4.5914   40.9647   11.6854 C.3     1  UNL1        0.0004
     16 C           3.1515   41.4449   11.8272 C.3     1  UNL1        0.0000
     17 C           2.8804   42.5747   10.8400 C.3     1  UNL1        0.0004
     18 C           3.0998   42.0891    9.4076 C.3     1  UNL1        0.0076
     19 C          11.6600   39.1168    8.3188 C.3     1  UNL1        0.2897
     20 O          12.4791   39.6794    9.3391 O.3     1  UNL1       -0.4656
     21 C          13.7146   40.2866    9.0865 C.ar    1  UNL1        0.1395
     22 C          14.8171   39.9271    9.8676 C.ar    1  UNL1        0.0400
     23 C          16.0646   40.5152    9.6406 C.ar    1  UNL1        0.0400
     24 C          16.2221   41.4727    8.6257 C.ar    1  UNL1        0.1389
     25 C          15.1190   41.8341    7.8463 C.ar    1  UNL1        0.0400
     26 C          13.8717   41.2472    8.0745 C.ar    1  UNL1        0.0400
     27 C          17.6493   43.0205    7.3277 C.3     1  UNL1        0.2525
     28 O          17.4568   42.0759    8.3717 O.3     1  UNL1       -0.4714
@<TRIPOS>BOND
     1     5     6   ar
     2     7     8   ar
     3     1     2   am
     4     9    12   ar
     5     9     1    1
     6    10    12   ar
     7    10     5   ar
     8    11     5   ar
     9    13    11    1
    10    13    14    1
    11    14    15    1
    12    15    16    1
    13    16    17    1
    14    17    18    1
    15    18    13    1
    16    19     2    1
    17    19    20    1
    18    21    20    1
    19    22    23   ar
    20    24    25   ar
    21    24    28    1
    22    26    21   ar
    23    27    28    1
    24     9     6   ar
    25    10     7   ar
    26    11     8   ar
    27     2     3    2
    28    21    22   ar
    29    23    24   ar
    30    25    26   ar
    31     1     4    1
@<TRIPOS>MOLECULE
MolPort-010-852-238 41108816 ChemDiv-G952-1562 MCULE-1534031103 PubChem-52103591 ZINC000041108816
 28 31 0 0 0
SMALL
GASTEIGER

@<TRIPOS>ATOM
      1 N          11.0836   41.3073    9.1477 N.am    1  UNL1       -0.2597
      2 C          11.5556   40.4860   10.2212 C.2     1  UNL1        0.2721
      3 O          11.1799   40.6789   11.4069 O.2     1  UNL1       -0.2707
      4 H          11.4503   41.1218    8.2531 H       1  UNL1        0.1569
      5 N           8.2733   43.4437    8.8373 N.ar    1  UNL1       -0.1881
      6 N           8.9588   42.3495    8.5502 N.ar    1  UNL1       -0.1400
      7 N           8.0532   45.3905    9.8509 N.ar    1  UNL1       -0.1202
      8 N           6.9781   45.1952    9.0761 N.ar    1  UNL1       -0.1310
      9 C          10.1308   42.3722    9.2463 C.ar    1  UNL1        0.1880
     10 C           8.8084   44.2942    9.6691 C.ar    1  UNL1        0.2195
     11 C           7.1193   43.9906    8.4568 C.ar    1  UNL1        0.1639
     12 S          10.3069   43.7931   10.2224 S.2     1  UNL1       -0.0111
     13 C           6.1755   43.4004    7.4533 C.3     1  UNL1        0.0606
     14 C           6.8929   42.9140    6.1883 C.3     1  UNL1        0.0076
     15 C           7.6431   41.6039    6.4294 C.3     1  UNL1        0.0004
     16 C           6.6924   40.5401    6.9669 C.3     1  UNL1        0.0000
     17 C           6.0764   41.0088    8.2804 C.3     1  UNL1        0.0004
     18 C           5.2959   42.3049    8.0655 C.3     1  UNL1        0.0076
     19 C          12.4934   39.3668    9.9243 C.3     1  UNL1        0.2897
     20 O          13.0694   39.5346    8.6326 O.3     1  UNL1       -0.4656
     21 C          13.9957   40.5386    8.3278 C.ar    1  UNL1        0.1395
     22 C          13.6933   41.4526    7.3139 C.ar    1  UNL1        0.0400
     23 C          14.5972   42.4668    6.9854 C.ar    1  UNL1        0.0400
     24 C          15.8177   42.5771    7.6707 C.ar    1  UNL1        0.1389
     25 C          16.1214   41.6615    8.6829 C.ar    1  UNL1        0.0400
     26 C          15.2182   40.6467    9.0100 C.ar    1  UNL1        0.0400
     27 C          18.0589   43.5982    7.8982 C.3     1  UNL1        0.2525
     28 O          16.7405   43.5819    7.3682 O.3     1  UNL1       -0.4714
@<TRIPOS>BOND
     1     5     6   ar
     2     7     8   ar
     3     1     2   am
     4     9    12   ar
     5     9     1    1
     6    10    12   ar
     7    10     5   ar
     8    11     5   ar
     9    13    11    1
    10    13    14    1
    11    14    15    1
    12    15    16    1
    13    16    17    1
    14    17    18    1
    15    18    13    1
    16    19     2    1
    17    19    20    1
    18    21    20    1
    19    22    23   ar
    20    24    25   ar
    21    24    28    1
    22    26    21   ar
    23    27    28    1
    24     9     6   ar
    25    10     7   ar
    26    11     8   ar
    27     2     3    2
    28    21    22   ar
    29    23    24   ar
    30    25    26   ar
    31     1     4    1
@<TRIPOS>MOLECULE
MolPort-010-852-238 41108816 ChemDiv-G952-1562 MCULE-1534031103 PubChem-52103591 ZINC000041108816
 28 31 0 0 0
SMALL
GASTEIGER

@<TRIPOS>ATOM
      1 N          12.1439   40.0447    9.4892 N.am    1  UNL1       -0.2597
      2 C          11.1697   40.9297    8.9257 C.2     1  UNL1        0.2721
      3 O          11.5121   41.9624    8.2927 O.2     1  UNL1       -0.2707
      4 H          11.8017   39.2780   10.0033 H       1  UNL1        0.1569
      5 N          15.4748   41.1785    9.0675 N.ar    1  UNL1       -0.1881
      6 N          14.1645   41.3570    9.0980 N.ar    1  UNL1       -0.1400
      7 N          17.2658   39.8960    9.1824 N.ar    1  UNL1       -0.1202
      8 N          17.6579   41.1407    8.8803 N.ar    1  UNL1       -0.1310
      9 C          13.5670   40.1643    9.3790 C.ar    1  UNL1        0.1880
     10 C          15.9286   39.9754    9.2864 C.ar    1  UNL1        0.2195
     11 C          16.5480   41.9269    8.8147 C.ar    1  UNL1        0.1639
     12 S          14.7039   38.8718    9.5778 S.2     1  UNL1       -0.0111
     13 C          16.5182   43.3793    8.4461 C.3     1  UNL1        0.0606
     14 C          17.8690   43.8790    7.9198 C.3     1  UNL1        0.0076
     15 C          18.1341   43.4004    6.4922 C.3     1  UNL1        0.0004
     16 C          16.9944   43.8220    5.5716 C.3     1  UNL1        0.0000
     17 C          15.6813   43.2215    6.0610 C.3     1  UNL1        0.0004
     18 C          15.3750   43.7039    7.4783 C.3     1  UNL1        0.0076
     19 C           9.7222   40.6090    9.0734 C.3     1  UNL1        0.2897
     20 O           8.9717   41.2200    8.0284 O.3     1  UNL1       -0.4656
     21 C           7.7768   41.9159    8.2449 C.ar    1  UNL1        0.1395
     22 C           7.6476   43.2121    7.7367 C.ar    1  UNL1        0.0400
     23 C           6.4672   43.9337    7.9359 C.ar    1  UNL1        0.0400
     24 C           5.4001   43.3634    8.6483 C.ar    1  UNL1        0.1389
     25 C           5.5303   42.0682    9.1587 C.ar    1  UNL1        0.0400
     26 C           6.7110   41.3477    8.9609 C.ar    1  UNL1        0.0400
     27 C           3.6543   44.9481    7.9009 C.3     1  UNL1        0.2525
     28 O           4.2061   44.0575    8.8610 O.3     1  UNL1       -0.4714
@<TRIPOS>BOND
     1     5     6   ar
     2     7     8   ar
     3     1     2   am
     4     9    12   ar
     5     9     1    1
     6    10    12   ar
     7    10     5   ar
     8    11     5   ar
     9    13    11    1
    10    13    14    1
    11    14    15    1
    12    15    16    1
    13    16    17    1
    14    17    18    1
    15    18    13    1
    16    19     2    1
    17    19    20    1
    18    21    20    1
    19    22    23   ar
    20    24    25   ar
    21    24    28    1
    22    26    21   ar
    23    27    28    1
    24     9     6   ar
    25    10     7   ar
    26    11     8   ar
    27     2     3    2
    28    21    22   ar
    29    23    24   ar
    30    25    26   ar
    31     1     4    1
@<TRIPOS>MOLECULE
MolPort-010-852-238 41108816 ChemDiv-G952-1562 MCULE-1534031103 PubChem-52103591 ZINC000041108816
 28 31 0 0 0
SMALL
GASTEIGER

@<TRIPOS>ATOM
      1 N          11.9253   41.0679    7.9635 N.am    1  UNL1       -0.2597
      2 C          10.9578   42.0127    8.4336 C.2     1  UNL1        0.2721
      3 O          11.2783   42.9403    9.2218 O.2     1  UNL1       -0.2707
      4 H          11.5943   40.3473    7.3800 H       1  UNL1        0.1569
      5 N          15.1676   40.4287    9.2432 N.ar    1  UNL1       -0.1881
      6 N          13.8623   40.2225    9.1847 N.ar    1  UNL1       -0.1400
      7 N          16.9946   41.5080    8.6410 N.ar    1  UNL1       -0.1202
      8 N          17.3220   40.6245    9.5931 N.ar    1  UNL1       -0.1310
      9 C          13.3270   41.0670    8.2579 C.ar    1  UNL1        0.1880
     10 C          15.6724   41.3461    8.4654 C.ar    1  UNL1        0.2195
     11 C          16.1905   39.9599    9.9570 C.ar    1  UNL1        0.1639
     12 S          14.5119   42.0910    7.5162 S.2     1  UNL1       -0.0111
     13 C          16.0861   38.9231   11.0342 C.3     1  UNL1        0.0606
     14 C          14.7168   38.9297   11.7244 C.3     1  UNL1        0.0076
     15 C          13.6360   38.2975   10.8472 C.3     1  UNL1        0.0004
     16 C          14.0416   36.8849   10.4418 C.3     1  UNL1        0.0000
     17 C          15.3527   36.9230    9.6646 C.3     1  UNL1        0.0004
     18 C          16.4609   37.5264   10.5267 C.3     1  UNL1        0.0076
     19 C           9.5482   41.9078    7.9624 C.3     1  UNL1        0.2897
     20 O           8.6511   41.9930    9.0653 O.3     1  UNL1       -0.4656
     21 C           7.3722   42.5544    8.9752 C.ar    1  UNL1        0.1395
     22 C           7.1808   43.6730    8.1586 C.ar    1  UNL1        0.0400
     23 C           5.9159   44.2572    8.0471 C.ar    1  UNL1        0.0400
     24 C           4.8255   43.7259    8.7545 C.ar    1  UNL1        0.1389
     25 C           5.0175   42.6088    9.5732 C.ar    1  UNL1        0.0400
     26 C           6.2825   42.0260    9.6856 C.ar    1  UNL1        0.0400
     27 C           3.2181   45.2917    7.7143 C.3     1  UNL1        0.2525
     28 O           3.5482   44.2849    8.6612 O.3     1  UNL1       -0.4714
@<TRIPOS>BOND
     1     5     6   ar
     2     7     8   ar
     3     1     2   am
     4     9    12   ar
     5     9     1    1
     6    10    12   ar
     7    10     5   ar
     8    11     5   ar
     9    13    11    1
    10    13    14    1
    11    14    15    1
    12    15    16    1
    13    16    17    1
    14    17    18    1
    15    18    13    1
    16    19     2    1
    17    19    20    1
    18    21    20    1
    19    22    23   ar
    20    24    25   ar
    21    24    28    1
    22    26    21   ar
    23    27    28    1
    24     9     6   ar
    25    10     7   ar
    26    11     8   ar
    27     2     3    2
    28    21    22   ar
    29    23    24   ar
    30    25    26   ar
    31     1     4    1
@<TRIPOS>MOLECULE
MolPort-010-852-238 41108816 ChemDiv-G952-1562 MCULE-1534031103 PubChem-52103591 ZINC000041108816
 28 31 0 0 0
SMALL
GASTEIGER

@<TRIPOS>ATOM
      1 N          10.9124   41.8317    6.3802 N.am    1  UNL1       -0.2597
      2 C           9.6615   41.6757    7.0589 C.2     1  UNL1        0.2721
      3 O           9.6119   41.3397    8.2709 O.2     1  UNL1       -0.2707
      4 H          10.8723   42.0587    5.4231 H       1  UNL1        0.1569
      5 N          13.7746   40.7907    8.1920 N.ar    1  UNL1       -0.1881
      6 N          12.5057   40.6875    7.8328 N.ar    1  UNL1       -0.1400
      7 N          15.7289   41.8128    8.1552 N.ar    1  UNL1       -0.1202
      8 N          15.8085   40.7826    9.0076 N.ar    1  UNL1       -0.1310
      9 C          12.2164   41.6903    6.9557 C.ar    1  UNL1        0.1880
     10 C          14.4706   41.7710    7.6861 C.ar    1  UNL1        0.2195
     11 C          14.6003   40.1547    9.0223 C.ar    1  UNL1        0.1639
     12 S          13.5722   42.7228    6.6422 S.2     1  UNL1       -0.0111
     13 C          14.2257   38.9859    9.8824 C.3     1  UNL1        0.0606
     14 C          14.6857   37.6490    9.2887 C.3     1  UNL1        0.0076
     15 C          16.1911   37.4414    9.4566 C.3     1  UNL1        0.0004
     16 C          16.5810   37.5546   10.9261 C.3     1  UNL1        0.0000
     17 C          16.2073   38.9334   11.4587 C.3     1  UNL1        0.0004
     18 C          14.7016   39.1601   11.3288 C.3     1  UNL1        0.0076
     19 C           8.3942   41.9378    6.3204 C.3     1  UNL1        0.2897
     20 O           7.7399   43.0849    6.8538 O.3     1  UNL1       -0.4656
     21 C           6.5515   43.0198    7.5903 C.ar    1  UNL1        0.1395
     22 C           5.7303   44.1498    7.6502 C.ar    1  UNL1        0.0400
     23 C           4.5370   44.1172    8.3774 C.ar    1  UNL1        0.0400
     24 C           4.1520   42.9490    9.0546 C.ar    1  UNL1        0.1389
     25 C           4.9745   41.8199    8.9969 C.ar    1  UNL1        0.0400
     26 C           6.1681   41.8532    8.2712 C.ar    1  UNL1        0.0400
     27 C           2.8022   42.0335   10.9140 C.3     1  UNL1        0.2525
     28 O           2.9636   42.8837    9.7869 O.3     1  UNL1       -0.4714
@<TRIPOS>BOND
     1     5     6   ar
     2     7     8   ar
     3     1     2   am
     4     9    12   ar
     5     9     1    1
     6    10    12   ar
     7    10     5   ar
     8    11     5   ar
     9    13    11    1
    10    13    14    1
    11    14    15    1
    12    15    16    1
    13    16    17    1
    14    17    18    1
    15    18    13    1
    16    19     2    1
    17    19    20    1
    18    21    20    1
    19    22    23   ar
    20    24    25   ar
    21    24    28    1
    22    26    21   ar
    23    27    28    1
    24     9     6   ar
    25    10     7   ar
    26    11     8   ar
    27     2     3    2
    28    21    22   ar
    29    23    24   ar
    30    25    26   ar
    31     1     4    1
@<TRIPOS>MOLECULE
MolPort-010-852-238 41108816 ChemDiv-G952-1562 MCULE-1534031103 PubChem-52103591 ZINC000041108816
 28 31 0 0 0
SMALL
GASTEIGER

@<TRIPOS>ATOM
      1 N           8.3518   41.6666    9.0105 N.am    1  UNL1       -0.2597
      2 C           9.3379   41.7777   10.0425 C.2     1  UNL1        0.2721
      3 O           9.3136   42.7243   10.8717 O.2     1  UNL1       -0.2707
      4 H           8.4567   40.9219    8.3752 H       1  UNL1        0.1569
      5 N           5.1512   43.1873    8.9640 N.ar    1  UNL1       -0.1881
      6 N           5.9878   42.2122    9.2786 N.ar    1  UNL1       -0.1400
      7 N           4.6845   45.1102    7.9892 N.ar    1  UNL1       -0.1202
      8 N           3.5517   44.6123    8.5022 N.ar    1  UNL1       -0.1310
      9 C           7.2278   42.5317    8.8106 C.ar    1  UNL1        0.1880
     10 C           5.6268   44.2042    8.2998 C.ar    1  UNL1        0.2195
     11 C           3.8481   43.4278    9.1051 C.ar    1  UNL1        0.1639
     12 S           7.2634   44.0529    7.9816 S.2     1  UNL1       -0.0111
     13 C           2.8667   42.5019    9.7575 C.3     1  UNL1        0.0606
     14 C           2.9835   41.0633    9.2396 C.3     1  UNL1        0.0076
     15 C           4.2119   40.3531    9.8088 C.3     1  UNL1        0.0004
     16 C           4.1864   40.3894   11.3327 C.3     1  UNL1        0.0000
     17 C           4.1786   41.8346   11.8184 C.3     1  UNL1        0.0004
     18 C           2.9457   42.5644   11.2867 C.3     1  UNL1        0.0076
     19 C          10.4009   40.7392   10.1493 C.3     1  UNL1        0.2897
     20 O          11.1358   40.6575    8.9321 O.3     1  UNL1       -0.4656
     21 C          10.6315   40.0680    7.7671 C.ar    1  UNL1        0.1395
     22 C           9.8496   38.9141    7.8770 C.ar    1  UNL1        0.0400
     23 C           9.3314   38.3013    6.7326 C.ar    1  UNL1        0.0400
     24 C           9.5912   38.8390    5.4619 C.ar    1  UNL1        0.1389
     25 C          10.3753   39.9914    5.3518 C.ar    1  UNL1        0.0400
     26 C          10.8946   40.6029    6.4958 C.ar    1  UNL1        0.0400
     27 C           9.5385   38.6054    3.0001 C.3     1  UNL1        0.2525
     28 O           9.0845   38.2518    4.2995 O.3     1  UNL1       -0.4714
@<TRIPOS>BOND
     1     5     6   ar
     2     7     8   ar
     3     1     2   am
     4     9    12   ar
     5     9     1    1
     6    10    12   ar
     7    10     5   ar
     8    11     5   ar
     9    13    11    1
    10    13    14    1
    11    14    15    1
    12    15    16    1
    13    16    17    1
    14    17    18    1
    15    18    13    1
    16    19     2    1
    17    19    20    1
    18    21    20    1
    19    22    23   ar
    20    24    25   ar
    21    24    28    1
    22    26    21   ar
    23    27    28    1
    24     9     6   ar
    25    10     7   ar
    26    11     8   ar
    27     2     3    2
    28    21    22   ar
    29    23    24   ar
    30    25    26   ar
    31     1     4    1
