@<TRIPOS>MOLECULE
MolPort-006-609-949 ChemDiv-V017-8360 MCULE-6791322291 PubChem-46070033 ZINC000034735441 ZINC34735441
 29 31 0 0 0
SMALL
GASTEIGER

@<TRIPOS>ATOM
      1 C           9.8183   41.8557   10.0474 C.3     1  UNL1        0.1015
      2 C           8.6153   42.6242   10.5684 C.3     1  UNL1        0.0435
      3 C           7.3526   41.7861   10.3921 C.3     1  UNL1        0.0971
      4 C           8.3644   41.1703    8.1499 C.2     1  UNL1        0.3112
      5 O           8.2151   40.7197    6.9805 O.2     1  UNL1       -0.2520
      6 N           9.6640   41.5958    8.6154 N.am    1  UNL1       -0.2430
      7 N           7.2296   41.2532    9.0331 N.am    1  UNL1       -0.2596
      8 C          13.2440   41.7510    7.4430 C.ar    1  UNL1        0.0515
      9 C          12.1245   41.6700    8.2775 C.ar    1  UNL1        0.0296
     10 C          10.8210   41.6949    7.7528 C.ar    1  UNL1        0.0565
     11 C          10.6608   41.7883    6.3594 C.ar    1  UNL1        0.0150
     12 C          11.7716   41.8689    5.5172 C.ar    1  UNL1        0.0026
     13 C          13.0590   41.8520    6.0574 C.ar    1  UNL1        0.0148
     14 C          15.7187   42.4321    7.5853 C.2     1  UNL1        0.2256
     15 O          15.6709   43.1665    6.5621 O.2     1  UNL1       -0.2748
     16 N          14.5500   41.7268    8.0371 N.am    1  UNL1       -0.2839
     17 H          14.6573   41.1673    8.8401 H       1  UNL1        0.1549
     18 C          17.4466   43.6222    8.9671 C.3     1  UNL1        0.0096
     19 C          17.0183   42.3123    8.3271 C.3     1  UNL1        0.0768
     20 C          16.9166   41.2373    9.3934 C.3     1  UNL1        0.0096
     21 C           5.9215   40.7668    8.6119 C.3     1  UNL1        0.1217
     22 C           4.8686   41.1846    9.5837 C.ar    1  UNL1       -0.0022
     23 C           4.6786   40.4650   10.7688 C.ar    1  UNL1       -0.0019
     24 C           3.7027   40.8701   11.6846 C.ar    1  UNL1        0.0100
     25 C           2.9162   41.9956   11.4169 C.ar    1  UNL1        0.0684
     26 C           3.1080   42.7181   10.2351 C.ar    1  UNL1        0.0100
     27 C           4.0843   42.3140    9.3193 C.ar    1  UNL1       -0.0019
     28 C           1.9202   42.4160   12.3617 C.1     1  UNL1        0.1004
     29 N           1.1164   42.7582   13.1215 N.1     1  UNL1       -0.1908
@<TRIPOS>BOND
     1    18    19    1
     2    19    20    1
     3    19    14    1
     4    14    16   am
     5     9    10   ar
     6    10     6    1
     7    11    12   ar
     8    13     8   ar
     9     1     6    1
    10     1     2    1
    11     2     3    1
    12     3     7    1
    13    21     7    1
    14    21    22    1
    15    23    24   ar
    16    25    26   ar
    17    25    28    1
    18    27    22   ar
    19     4     6   am
    20    16     8    1
    21     7     4   am
    22    14    15    2
    23     8     9   ar
    24    10    11   ar
    25    12    13   ar
    26    22    23   ar
    27    24    25   ar
    28    26    27   ar
    29     4     5    2
    30    28    29    3
    31    16    17    1
@<TRIPOS>MOLECULE
MolPort-006-609-949 ChemDiv-V017-8360 MCULE-6791322291 PubChem-46070033 ZINC000034735441 ZINC34735441
 29 31 0 0 0
SMALL
GASTEIGER

@<TRIPOS>ATOM
      1 C          10.4214   41.9986   11.1820 C.3     1  UNL1        0.1015
      2 C          10.9115   40.5719   11.3655 C.3     1  UNL1        0.0435
      3 C          12.1266   40.3261   10.4761 C.3     1  UNL1        0.0971
      4 C          10.8345   41.6643    8.7527 C.2     1  UNL1        0.3112
      5 O          10.6537   41.9911    7.5471 O.2     1  UNL1       -0.2520
      6 N           9.9973   42.2076    9.7970 N.am    1  UNL1       -0.2430
      7 N          11.8918   40.7472    9.0928 N.am    1  UNL1       -0.2596
      8 C           6.3910   43.2583    9.4717 C.ar    1  UNL1        0.0515
      9 C           7.5292   42.4819    9.7121 C.ar    1  UNL1        0.0296
     10 C           8.8206   43.0068    9.5336 C.ar    1  UNL1        0.0565
     11 C           8.9496   44.3439    9.1197 C.ar    1  UNL1        0.0150
     12 C           7.8199   45.1281    8.8777 C.ar    1  UNL1        0.0026
     13 C           6.5447   44.5866    9.0516 C.ar    1  UNL1        0.0148
     14 C           4.6829   41.8385   10.7657 C.2     1  UNL1        0.2256
     15 O           5.4847   41.5550   11.6959 O.2     1  UNL1       -0.2748
     16 N           5.0985   42.6657    9.6656 N.am    1  UNL1       -0.2839
     17 H           4.4242   42.8448    8.9710 H       1  UNL1        0.1549
     18 C           2.3713   42.1523   11.6982 C.3     1  UNL1        0.0096
     19 C           3.2830   41.3002   10.8312 C.3     1  UNL1        0.0768
     20 C           2.6973   41.1907    9.4355 C.3     1  UNL1        0.0096
     21 C          12.7940   40.2381    8.0671 C.3     1  UNL1        0.1217
     22 C          14.0090   41.0987    7.9632 C.ar    1  UNL1       -0.0022
     23 C          15.1199   40.8499    8.7770 C.ar    1  UNL1       -0.0019
     24 C          16.2626   41.6479    8.6643 C.ar    1  UNL1        0.0100
     25 C          16.2961   42.6950    7.7372 C.ar    1  UNL1        0.0684
     26 C          15.1884   42.9418    6.9203 C.ar    1  UNL1        0.0100
     27 C          14.0457   42.1436    7.0319 C.ar    1  UNL1       -0.0019
     28 C          17.4729   43.5085    7.6160 C.1     1  UNL1        0.1004
     29 N          18.4226   44.1640    7.5220 N.1     1  UNL1       -0.1908
@<TRIPOS>BOND
     1    18    19    1
     2    19    20    1
     3    19    14    1
     4    14    16   am
     5     9    10   ar
     6    10     6    1
     7    11    12   ar
     8    13     8   ar
     9     1     6    1
    10     1     2    1
    11     2     3    1
    12     3     7    1
    13    21     7    1
    14    21    22    1
    15    23    24   ar
    16    25    26   ar
    17    25    28    1
    18    27    22   ar
    19     4     6   am
    20    16     8    1
    21     7     4   am
    22    14    15    2
    23     8     9   ar
    24    10    11   ar
    25    12    13   ar
    26    22    23   ar
    27    24    25   ar
    28    26    27   ar
    29     4     5    2
    30    28    29    3
    31    16    17    1
@<TRIPOS>MOLECULE
MolPort-006-609-949 ChemDiv-V017-8360 MCULE-6791322291 PubChem-46070033 ZINC000034735441 ZINC34735441
 29 31 0 0 0
SMALL
GASTEIGER

@<TRIPOS>ATOM
      1 C          12.3326   41.4914    7.9308 C.3     1  UNL1        0.1015
      2 C          13.8474   41.5441    8.0414 C.3     1  UNL1        0.0435
      3 C          14.3565   40.2913    8.7479 C.3     1  UNL1        0.0971
      4 C          12.3474   40.6199   10.2599 C.2     1  UNL1        0.3112
      5 O          11.7636   40.3829   11.3534 O.2     1  UNL1       -0.2520
      6 N          11.7341   41.4702    9.2662 N.am    1  UNL1       -0.2430
      7 N          13.6344   40.0297    9.9953 N.am    1  UNL1       -0.2596
      8 C           8.0876   42.3611    9.6190 C.ar    1  UNL1        0.0515
      9 C           9.2571   41.6351    9.3711 C.ar    1  UNL1        0.0296
     10 C          10.5247   42.2262    9.5080 C.ar    1  UNL1        0.0565
     11 C          10.5977   43.5690    9.9173 C.ar    1  UNL1        0.0150
     12 C           9.4364   44.3027   10.1681 C.ar    1  UNL1        0.0026
     13 C           8.1854   43.7011   10.0178 C.ar    1  UNL1        0.0148
     14 C           5.8812   41.3722   10.4922 C.2     1  UNL1        0.2256
     15 O           6.1267   41.6495   11.6970 O.2     1  UNL1       -0.2748
     16 N           6.8215   41.7053    9.4566 N.am    1  UNL1       -0.2839
     17 H           6.5698   41.4570    8.5378 H       1  UNL1        0.1549
     18 C           3.8787   40.1484   11.3886 C.3     1  UNL1        0.0096
     19 C           4.5852   40.6923   10.1581 C.3     1  UNL1        0.0768
     20 C           3.6632   41.6507    9.4271 C.3     1  UNL1        0.0096
     21 C          14.2439   39.1136   10.9517 C.3     1  UNL1        0.1217
     22 C          14.4921   37.7844   10.3197 C.ar    1  UNL1       -0.0022
     23 C          13.4845   36.8134   10.3030 C.ar    1  UNL1       -0.0019
     24 C          13.7156   35.5758    9.6947 C.ar    1  UNL1        0.0100
     25 C          14.9540   35.3079    9.1017 C.ar    1  UNL1        0.0684
     26 C          15.9601   36.2789    9.1138 C.ar    1  UNL1        0.0100
     27 C          15.7294   37.5171    9.7212 C.ar    1  UNL1       -0.0019
     28 C          15.1876   34.0400    8.4696 C.1     1  UNL1        0.1004
     29 N          15.3794   33.0187    7.9593 N.1     1  UNL1       -0.1908
@<TRIPOS>BOND
     1    18    19    1
     2    19    20    1
     3    19    14    1
     4    14    16   am
     5     9    10   ar
     6    10     6    1
     7    11    12   ar
     8    13     8   ar
     9     1     6    1
    10     1     2    1
    11     2     3    1
    12     3     7    1
    13    21     7    1
    14    21    22    1
    15    23    24   ar
    16    25    26   ar
    17    25    28    1
    18    27    22   ar
    19     4     6   am
    20    16     8    1
    21     7     4   am
    22    14    15    2
    23     8     9   ar
    24    10    11   ar
    25    12    13   ar
    26    22    23   ar
    27    24    25   ar
    28    26    27   ar
    29     4     5    2
    30    28    29    3
    31    16    17    1
@<TRIPOS>MOLECULE
MolPort-006-609-949 ChemDiv-V017-8360 MCULE-6791322291 PubChem-46070033 ZINC000034735441 ZINC34735441
 29 31 0 0 0
SMALL
GASTEIGER

@<TRIPOS>ATOM
      1 C          10.3985   41.1541   11.5834 C.3     1  UNL1        0.1015
      2 C           9.3299   42.2076   11.8237 C.3     1  UNL1        0.0435
      3 C           8.0306   41.7886   11.1424 C.3     1  UNL1        0.0971
      4 C           9.5452   41.0427    9.2503 C.2     1  UNL1        0.3112
      5 O           9.6886   40.7285    8.0364 O.2     1  UNL1       -0.2520
      6 N          10.6746   41.0394   10.1508 N.am    1  UNL1       -0.2430
      7 N           8.2407   41.3998    9.7458 N.am    1  UNL1       -0.2596
      8 C          13.8884   41.4075    8.2139 C.ar    1  UNL1        0.0515
      9 C          12.5650   41.5810    8.6319 C.ar    1  UNL1        0.0296
     10 C          12.0390   40.8482    9.7096 C.ar    1  UNL1        0.0565
     11 C          12.8792   39.9396   10.3763 C.ar    1  UNL1        0.0150
     12 C          14.2021   39.7592    9.9676 C.ar    1  UNL1        0.0026
     13 C          14.7046   40.4895    8.8889 C.ar    1  UNL1        0.0148
     14 C          15.5357   43.0177    7.0731 C.2     1  UNL1        0.2256
     15 O          16.2647   43.1418    8.0938 O.2     1  UNL1       -0.2748
     16 N          14.3677   42.1798    7.1035 N.am    1  UNL1       -0.2839
     17 H          13.8402   42.1307    6.2737 H       1  UNL1        0.1549
     18 C          15.2860   45.1394    5.7513 C.3     1  UNL1        0.0096
     19 C          15.9136   43.7574    5.8226 C.3     1  UNL1        0.0768
     20 C          17.4227   43.8808    5.7218 C.3     1  UNL1        0.0096
     21 C           7.0730   41.3447    8.8748 C.3     1  UNL1        0.1217
     22 C           5.8274   41.6206    9.6494 C.ar    1  UNL1       -0.0022
     23 C           5.0002   42.6921    9.2945 C.ar    1  UNL1       -0.0019
     24 C           3.8253   42.9365   10.0122 C.ar    1  UNL1        0.0100
     25 C           3.4757   42.1094   11.0850 C.ar    1  UNL1        0.0684
     26 C           4.2992   41.0358   11.4378 C.ar    1  UNL1        0.0100
     27 C           5.4738   40.7903   10.7200 C.ar    1  UNL1       -0.0019
     28 C           2.2648   42.3558   11.8159 C.1     1  UNL1        0.1004
     29 N           1.2900   42.5532   12.4085 N.1     1  UNL1       -0.1908
@<TRIPOS>BOND
     1    18    19    1
     2    19    20    1
     3    19    14    1
     4    14    16   am
     5     9    10   ar
     6    10     6    1
     7    11    12   ar
     8    13     8   ar
     9     1     6    1
    10     1     2    1
    11     2     3    1
    12     3     7    1
    13    21     7    1
    14    21    22    1
    15    23    24   ar
    16    25    26   ar
    17    25    28    1
    18    27    22   ar
    19     4     6   am
    20    16     8    1
    21     7     4   am
    22    14    15    2
    23     8     9   ar
    24    10    11   ar
    25    12    13   ar
    26    22    23   ar
    27    24    25   ar
    28    26    27   ar
    29     4     5    2
    30    28    29    3
    31    16    17    1
@<TRIPOS>MOLECULE
MolPort-006-609-949 ChemDiv-V017-8360 MCULE-6791322291 PubChem-46070033 ZINC000034735441 ZINC34735441
 29 31 0 0 0
SMALL
GASTEIGER

@<TRIPOS>ATOM
      1 C          10.1081   41.3962   10.3341 C.3     1  UNL1        0.1015
      2 C          10.8454   40.5622   11.3686 C.3     1  UNL1        0.0435
      3 C          12.3260   40.4849   11.0081 C.3     1  UNL1        0.0971
      4 C          11.4857   40.2202    8.6302 C.2     1  UNL1        0.3112
      5 O          11.6986   39.8613    7.4391 O.2     1  UNL1       -0.2520
      6 N          10.2040   40.7612    9.0191 N.am    1  UNL1       -0.2430
      7 N          12.5338   40.0978    9.6107 N.am    1  UNL1       -0.2596
      8 C           6.6392   40.9680    7.8089 C.ar    1  UNL1        0.0515
      9 C           7.7527   40.9403    8.6549 C.ar    1  UNL1        0.0296
     10 C           9.0517   40.7745    8.1447 C.ar    1  UNL1        0.0565
     11 C           9.2152   40.6510    6.7541 C.ar    1  UNL1        0.0150
     12 C           8.1104   40.6780    5.9004 C.ar    1  UNL1        0.0026
     13 C           6.8265   40.8343    6.4263 C.ar    1  UNL1        0.0148
     14 C           4.8223   42.3104    9.0356 C.2     1  UNL1        0.2256
     15 O           5.5331   43.3450    9.1490 O.2     1  UNL1       -0.2748
     16 N           5.3370   41.1341    8.3884 N.am    1  UNL1       -0.2839
     17 H           4.7311   40.3598    8.3374 H       1  UNL1        0.1549
     18 C           2.6339   41.0890    9.2111 C.3     1  UNL1        0.0096
     19 C           3.4251   42.3315    9.5843 C.3     1  UNL1        0.0768
     20 C           3.4568   42.4769   11.0946 C.3     1  UNL1        0.0096
     21 C          13.8572   39.6196    9.2297 C.3     1  UNL1        0.1217
     22 C          13.8812   38.1281    9.1778 C.ar    1  UNL1       -0.0022
     23 C          14.9411   37.4622    8.5523 C.ar    1  UNL1       -0.0019
     24 C          14.9683   36.0645    8.5211 C.ar    1  UNL1        0.0100
     25 C          13.9361   35.3311    9.1160 C.ar    1  UNL1        0.0684
     26 C          12.8787   35.9953    9.7452 C.ar    1  UNL1        0.0100
     27 C          12.8513   37.3930    9.7775 C.ar    1  UNL1       -0.0019
     28 C          13.9691   33.8960    9.0910 C.1     1  UNL1        0.1004
     29 N          13.9991   32.7388    9.0693 N.1     1  UNL1       -0.1908
@<TRIPOS>BOND
     1    18    19    1
     2    19    20    1
     3    19    14    1
     4    14    16   am
     5     9    10   ar
     6    10     6    1
     7    11    12   ar
     8    13     8   ar
     9     1     6    1
    10     1     2    1
    11     2     3    1
    12     3     7    1
    13    21     7    1
    14    21    22    1
    15    23    24   ar
    16    25    26   ar
    17    25    28    1
    18    27    22   ar
    19     4     6   am
    20    16     8    1
    21     7     4   am
    22    14    15    2
    23     8     9   ar
    24    10    11   ar
    25    12    13   ar
    26    22    23   ar
    27    24    25   ar
    28    26    27   ar
    29     4     5    2
    30    28    29    3
    31    16    17    1
@<TRIPOS>MOLECULE
MolPort-006-609-949 ChemDiv-V017-8360 MCULE-6791322291 PubChem-46070033 ZINC000034735441 ZINC34735441
 29 31 0 0 0
SMALL
GASTEIGER

@<TRIPOS>ATOM
      1 C          11.3616   39.8501    9.4547 C.3     1  UNL1        0.1015
      2 C          10.5026   39.7714   10.7059 C.3     1  UNL1        0.0435
      3 C           9.3335   40.7448   10.5905 C.3     1  UNL1        0.0971
      4 C          11.0528   42.3142    9.5847 C.2     1  UNL1        0.3112
      5 O          11.3999   43.4879    9.2767 O.2     1  UNL1       -0.2520
      6 N          11.9250   41.1939    9.3185 N.am    1  UNL1       -0.2430
      7 N           9.7703   42.0875   10.1999 N.am    1  UNL1       -0.2596
      8 C          15.6523   40.7460    8.9692 C.ar    1  UNL1        0.0515
      9 C          14.3384   40.6134    9.4300 C.ar    1  UNL1        0.0296
     10 C          13.2859   41.3432    8.8513 C.ar    1  UNL1        0.0565
     11 C          13.5775   42.2059    7.7805 C.ar    1  UNL1        0.0150
     12 C          14.8856   42.3452    7.3122 C.ar    1  UNL1        0.0026
     13 C          15.9198   41.6189    7.9057 C.ar    1  UNL1        0.0148
     14 C          16.7873   38.5462    9.6622 C.2     1  UNL1        0.2256
     15 O          15.9098   37.8171    9.1266 O.2     1  UNL1       -0.2748
     16 N          16.6861   39.9793    9.6035 N.am    1  UNL1       -0.2839
     17 H          17.4028   40.4890   10.0459 H       1  UNL1        0.1549
     18 C          18.8530   37.1410    9.3976 C.3     1  UNL1        0.0096
     19 C          17.9441   37.8894   10.3582 C.3     1  UNL1        0.0768
     20 C          18.7534   38.9228   11.1199 C.3     1  UNL1        0.0096
     21 C           8.8431   43.1914   10.4166 C.3     1  UNL1        0.1217
     22 C           7.4382   42.7528   10.1686 C.ar    1  UNL1       -0.0022
     23 C           6.8324   42.9966    8.9309 C.ar    1  UNL1       -0.0019
     24 C           5.5219   42.5687    8.6969 C.ar    1  UNL1        0.0100
     25 C           4.8160   41.8958    9.6998 C.ar    1  UNL1        0.0684
     26 C           5.4217   41.6476   10.9355 C.ar    1  UNL1        0.0100
     27 C           6.7325   42.0745   11.1698 C.ar    1  UNL1       -0.0019
     28 C           3.4735   41.4491    9.4558 C.1     1  UNL1        0.1004
     29 N           2.3901   41.0923    9.2576 N.1     1  UNL1       -0.1908
@<TRIPOS>BOND
     1    18    19    1
     2    19    20    1
     3    19    14    1
     4    14    16   am
     5     9    10   ar
     6    10     6    1
     7    11    12   ar
     8    13     8   ar
     9     1     6    1
    10     1     2    1
    11     2     3    1
    12     3     7    1
    13    21     7    1
    14    21    22    1
    15    23    24   ar
    16    25    26   ar
    17    25    28    1
    18    27    22   ar
    19     4     6   am
    20    16     8    1
    21     7     4   am
    22    14    15    2
    23     8     9   ar
    24    10    11   ar
    25    12    13   ar
    26    22    23   ar
    27    24    25   ar
    28    26    27   ar
    29     4     5    2
    30    28    29    3
    31    16    17    1
@<TRIPOS>MOLECULE
MolPort-006-609-949 ChemDiv-V017-8360 MCULE-6791322291 PubChem-46070033 ZINC000034735441 ZINC34735441
 29 31 0 0 0
SMALL
GASTEIGER

@<TRIPOS>ATOM
      1 C           8.5623   40.1579    5.7231 C.3     1  UNL1        0.1015
      2 C           9.8420   40.0265    4.9140 C.3     1  UNL1        0.0435
      3 C          10.9675   39.5164    5.8090 C.3     1  UNL1        0.0971
      4 C           9.9861   41.0951    7.5338 C.2     1  UNL1        0.3112
      5 O          10.1223   41.7545    8.6013 O.2     1  UNL1       -0.2520
      6 N           8.7461   41.1382    6.7941 N.am    1  UNL1       -0.2430
      7 N          11.0745   40.2839    7.0521 N.am    1  UNL1       -0.2596
      8 C           5.6753   42.5976    8.4238 C.ar    1  UNL1        0.0515
      9 C           6.7146   41.7187    8.1017 C.ar    1  UNL1        0.0296
     10 C           7.6628   42.0413    7.1158 C.ar    1  UNL1        0.0565
     11 C           7.5561   43.2818    6.4634 C.ar    1  UNL1        0.0150
     12 C           6.5230   44.1670    6.7778 C.ar    1  UNL1        0.0026
     13 C           5.5847   43.8253    7.7537 C.ar    1  UNL1        0.0148
     14 C           5.0305   41.7914   10.7780 C.2     1  UNL1        0.2256
     15 O           6.2224   41.7266   11.1827 O.2     1  UNL1       -0.2748
     16 N           4.7336   42.2107    9.4351 N.am    1  UNL1       -0.2839
     17 H           3.7824   42.2350    9.1823 H       1  UNL1        0.1549
     18 C           2.6060   42.0884   11.3654 C.3     1  UNL1        0.0096
     19 C           3.9257   41.4276   11.7271 C.3     1  UNL1        0.0768
     20 C           3.7435   39.9216   11.7675 C.3     1  UNL1        0.0096
     21 C          12.3113   40.1687    7.8152 C.3     1  UNL1        0.1217
     22 C          13.2737   41.2386    7.4190 C.ar    1  UNL1       -0.0022
     23 C          14.5106   41.3474    8.0644 C.ar    1  UNL1       -0.0019
     24 C          15.4162   42.3404    7.6783 C.ar    1  UNL1        0.0100
     25 C          15.0865   43.2251    6.6461 C.ar    1  UNL1        0.0684
     26 C          13.8527   43.1147    5.9975 C.ar    1  UNL1        0.0100
     27 C          12.9469   42.1214    6.3824 C.ar    1  UNL1       -0.0019
     28 C          16.0204   44.2389    6.2445 C.1     1  UNL1        0.1004
     29 N          16.7763   45.0539    5.9207 N.1     1  UNL1       -0.1908
@<TRIPOS>BOND
     1    18    19    1
     2    19    20    1
     3    19    14    1
     4    14    16   am
     5     9    10   ar
     6    10     6    1
     7    11    12   ar
     8    13     8   ar
     9     1     6    1
    10     1     2    1
    11     2     3    1
    12     3     7    1
    13    21     7    1
    14    21    22    1
    15    23    24   ar
    16    25    26   ar
    17    25    28    1
    18    27    22   ar
    19     4     6   am
    20    16     8    1
    21     7     4   am
    22    14    15    2
    23     8     9   ar
    24    10    11   ar
    25    12    13   ar
    26    22    23   ar
    27    24    25   ar
    28    26    27   ar
    29     4     5    2
    30    28    29    3
    31    16    17    1
@<TRIPOS>MOLECULE
MolPort-006-609-949 ChemDiv-V017-8360 MCULE-6791322291 PubChem-46070033 ZINC000034735441 ZINC34735441
 29 31 0 0 0
SMALL
GASTEIGER

@<TRIPOS>ATOM
      1 C          10.7499   39.9344   10.3062 C.3     1  UNL1        0.1015
      2 C          11.0932   41.4134   10.3715 C.3     1  UNL1        0.0435
      3 C          10.8705   42.0549    9.0052 C.3     1  UNL1        0.0971
      4 C          11.9037   39.9219    8.1034 C.2     1  UNL1        0.3112
      5 O          12.4699   39.3075    7.1574 O.2     1  UNL1       -0.2520
      6 N          11.6344   39.2570    9.3572 N.am    1  UNL1       -0.2430
      7 N          11.5137   41.2974    7.9288 N.am    1  UNL1       -0.2596
      8 C          13.9666   36.3339    9.8381 C.ar    1  UNL1        0.0515
      9 C          13.4857   37.6075    9.5175 C.ar    1  UNL1        0.0296
     10 C          12.1280   37.9348    9.6747 C.ar    1  UNL1        0.0565
     11 C          11.2560   36.9546   10.1792 C.ar    1  UNL1        0.0150
     12 C          11.7258   35.6801   10.5031 C.ar    1  UNL1        0.0026
     13 C          13.0764   35.3703   10.3316 C.ar    1  UNL1        0.0148
     14 C          16.0267   35.7655    8.4095 C.2     1  UNL1        0.2256
     15 O          15.3809   35.7274    7.3278 O.2     1  UNL1       -0.2748
     16 N          15.3620   36.0564    9.6508 N.am    1  UNL1       -0.2839
     17 H          15.9244   36.0664   10.4588 H       1  UNL1        0.1549
     18 C          18.2366   36.1586    9.5379 C.3     1  UNL1        0.0096
     19 C          17.5051   35.5068    8.3764 C.3     1  UNL1        0.0768
     20 C          17.7766   34.0137    8.3808 C.3     1  UNL1        0.0096
     21 C          11.7117   41.9708    6.6511 C.3     1  UNL1        0.1217
     22 C          13.0985   42.5139    6.5537 C.ar    1  UNL1       -0.0022
     23 C          13.4051   43.4960    5.6051 C.ar    1  UNL1       -0.0019
     24 C          14.7015   44.0144    5.5288 C.ar    1  UNL1        0.0100
     25 C          15.6925   43.5521    6.4013 C.ar    1  UNL1        0.0684
     26 C          15.3862   42.5741    7.3525 C.ar    1  UNL1        0.0100
     27 C          14.0898   42.0558    7.4300 C.ar    1  UNL1       -0.0019
     28 C          17.0212   44.0912    6.3281 C.1     1  UNL1        0.1004
     29 N          18.0930   44.5243    6.2656 N.1     1  UNL1       -0.1908
@<TRIPOS>BOND
     1    18    19    1
     2    19    20    1
     3    19    14    1
     4    14    16   am
     5     9    10   ar
     6    10     6    1
     7    11    12   ar
     8    13     8   ar
     9     1     6    1
    10     1     2    1
    11     2     3    1
    12     3     7    1
    13    21     7    1
    14    21    22    1
    15    23    24   ar
    16    25    26   ar
    17    25    28    1
    18    27    22   ar
    19     4     6   am
    20    16     8    1
    21     7     4   am
    22    14    15    2
    23     8     9   ar
    24    10    11   ar
    25    12    13   ar
    26    22    23   ar
    27    24    25   ar
    28    26    27   ar
    29     4     5    2
    30    28    29    3
    31    16    17    1
@<TRIPOS>MOLECULE
MolPort-006-609-949 ChemDiv-V017-8360 MCULE-6791322291 PubChem-46070033 ZINC000034735441 ZINC34735441
 29 31 0 0 0
SMALL
GASTEIGER

@<TRIPOS>ATOM
      1 C           9.8981   41.1988   10.1020 C.3     1  UNL1        0.1015
      2 C          10.7865   40.5621   11.1578 C.3     1  UNL1        0.0435
      3 C          12.2416   40.6051   10.7010 C.3     1  UNL1        0.0971
      4 C          11.2941   40.0026    8.4273 C.2     1  UNL1        0.3112
      5 O          11.4736   39.5446    7.2651 O.2     1  UNL1       -0.2520
      6 N           9.9853   40.4422    8.8523 N.am    1  UNL1       -0.2430
      7 N          12.4068   40.0968    9.3371 N.am    1  UNL1       -0.2596
      8 C           6.4414   40.7365    7.5995 C.ar    1  UNL1        0.0515
      9 C           7.5955   40.9200    8.3680 C.ar    1  UNL1        0.0296
     10 C           8.7880   40.2402    8.0660 C.ar    1  UNL1        0.0565
     11 C           8.8047   39.3756    6.9579 C.ar    1  UNL1        0.0150
     12 C           7.6583   39.1857    6.1836 C.ar    1  UNL1        0.0026
     13 C           6.4801   39.8627    6.5043 C.ar    1  UNL1        0.0148
     14 C           4.5445   41.3822    9.2098 C.2     1  UNL1        0.2256
     15 O           4.9486   40.6279   10.1351 O.2     1  UNL1       -0.2748
     16 N           5.2518   41.4535    7.9600 N.am    1  UNL1       -0.2839
     17 H           4.8802   42.0592    7.2785 H       1  UNL1        0.1549
     18 C           2.8381   42.1588   10.8821 C.3     1  UNL1        0.0096
     19 C           3.3131   42.2096    9.4396 C.3     1  UNL1        0.0768
     20 C           3.5680   43.6515    9.0409 C.3     1  UNL1        0.0096
     21 C          13.7503   39.7246    8.9108 C.3     1  UNL1        0.1217
     22 C          14.4382   40.8850    8.2721 C.ar    1  UNL1       -0.0022
     23 C          13.7809   41.6438    7.2971 C.ar    1  UNL1       -0.0019
     24 C          14.4228   42.7405    6.7137 C.ar    1  UNL1        0.0100
     25 C          15.7222   43.0804    7.1050 C.ar    1  UNL1        0.0684
     26 C          16.3784   42.3257    8.0823 C.ar    1  UNL1        0.0100
     27 C          15.7368   41.2293    8.6667 C.ar    1  UNL1       -0.0019
     28 C          16.3774   44.2118    6.5118 C.1     1  UNL1        0.1004
     29 N          16.9085   45.1220    6.0323 N.1     1  UNL1       -0.1908
@<TRIPOS>BOND
     1    18    19    1
     2    19    20    1
     3    19    14    1
     4    14    16   am
     5     9    10   ar
     6    10     6    1
     7    11    12   ar
     8    13     8   ar
     9     1     6    1
    10     1     2    1
    11     2     3    1
    12     3     7    1
    13    21     7    1
    14    21    22    1
    15    23    24   ar
    16    25    26   ar
    17    25    28    1
    18    27    22   ar
    19     4     6   am
    20    16     8    1
    21     7     4   am
    22    14    15    2
    23     8     9   ar
    24    10    11   ar
    25    12    13   ar
    26    22    23   ar
    27    24    25   ar
    28    26    27   ar
    29     4     5    2
    30    28    29    3
    31    16    17    1
@<TRIPOS>MOLECULE
MolPort-006-609-949 ChemDiv-V017-8360 MCULE-6791322291 PubChem-46070033 ZINC000034735441 ZINC34735441
 29 31 0 0 0
SMALL
GASTEIGER

@<TRIPOS>ATOM
      1 C          11.1422   41.1923    6.3514 C.3     1  UNL1        0.1015
      2 C          10.1541   40.0743    6.6395 C.3     1  UNL1        0.0435
      3 C           9.0584   40.5825    7.5717 C.3     1  UNL1        0.0971
      4 C          10.9567   41.7686    8.7634 C.2     1  UNL1        0.3112
      5 O          11.3977   42.3397    9.7988 O.2     1  UNL1       -0.2520
      6 N          11.7894   41.6200    7.5924 N.am    1  UNL1       -0.2430
      7 N           9.6063   41.2677    8.7449 N.am    1  UNL1       -0.2596
      8 C          15.4905   41.5241    8.3049 C.ar    1  UNL1        0.0515
      9 C          14.1266   41.2155    8.3324 C.ar    1  UNL1        0.0296
     10 C          13.1978   41.9496    7.5750 C.ar    1  UNL1        0.0565
     11 C          13.6704   43.0002    6.7696 C.ar    1  UNL1        0.0150
     12 C          15.0301   43.3162    6.7342 C.ar    1  UNL1        0.0026
     13 C          15.9370   42.5816    7.5006 C.ar    1  UNL1        0.0148
     14 C          16.0441   39.8681   10.1916 C.2     1  UNL1        0.2256
     15 O          14.8423   39.7235   10.5426 O.2     1  UNL1       -0.2748
     16 N          16.3905   40.7428    9.1042 N.am    1  UNL1       -0.2839
     17 H          17.3476   40.8132    8.8845 H       1  UNL1        0.1549
     18 C          16.7263   37.6524   11.1592 C.3     1  UNL1        0.0096
     19 C          17.1072   39.1050   10.9272 C.3     1  UNL1        0.0768
     20 C          18.4196   39.1692   10.1679 C.3     1  UNL1        0.0096
     21 C           8.7233   41.4657    9.8878 C.3     1  UNL1        0.1217
     22 C           7.5223   42.2583    9.4916 C.ar    1  UNL1       -0.0022
     23 C           7.6736   43.5098    8.8840 C.ar    1  UNL1       -0.0019
     24 C           6.5460   44.2415    8.4988 C.ar    1  UNL1        0.0100
     25 C           5.2659   43.7222    8.7198 C.ar    1  UNL1        0.0684
     26 C           5.1135   42.4699    9.3228 C.ar    1  UNL1        0.0100
     27 C           6.2407   41.7373    9.7075 C.ar    1  UNL1       -0.0019
     28 C           4.1087   44.4702    8.3162 C.1     1  UNL1        0.1004
     29 N           3.1746   45.0705    7.9885 N.1     1  UNL1       -0.1908
@<TRIPOS>BOND
     1    18    19    1
     2    19    20    1
     3    19    14    1
     4    14    16   am
     5     9    10   ar
     6    10     6    1
     7    11    12   ar
     8    13     8   ar
     9     1     6    1
    10     1     2    1
    11     2     3    1
    12     3     7    1
    13    21     7    1
    14    21    22    1
    15    23    24   ar
    16    25    26   ar
    17    25    28    1
    18    27    22   ar
    19     4     6   am
    20    16     8    1
    21     7     4   am
    22    14    15    2
    23     8     9   ar
    24    10    11   ar
    25    12    13   ar
    26    22    23   ar
    27    24    25   ar
    28    26    27   ar
    29     4     5    2
    30    28    29    3
    31    16    17    1
