@<TRIPOS>MOLECULE
Molport-053-332-402 MCULE-4622279178
 21 22 0 0 0
SMALL
GASTEIGER

@<TRIPOS>ATOM
      1 C          12.6886   41.5475    6.6556 C.ar    1  UNL1        0.1550
      2 C          13.9197   41.7318    7.2488 C.ar    1  UNL1        0.0505
      3 C          14.4417   42.8313    6.6285 C.ar    1  UNL1        0.0774
      4 C          15.6889   43.3482    6.9711 C.ar    1  UNL1        0.0299
      5 C          16.4068   42.6962    7.9936 C.ar    1  UNL1        0.0592
      6 C          15.8634   41.5574    8.6364 C.ar    1  UNL1        0.0116
      7 C          14.5995   41.0610    8.2633 C.ar    1  UNL1        0.0052
      8 N          13.5753   43.2863    5.7078 N.ar    1  UNL1       -0.2745
      9 N          12.4989   42.5065    5.7165 N.ar    1  UNL1       -0.1574
     10 CL         17.9796   43.3031    8.4764 Cl      1  UNL1       -0.0822
     11 H          13.7144   44.0669    5.1242 H       1  UNL1        0.1890
     12 C          10.4167   40.7610    7.4401 C.2     1  UNL1        0.2272
     13 N          11.7490   40.5094    6.9687 N.am    1  UNL1       -0.2680
     14 O          10.0096   41.9404    7.6219 O.2     1  UNL1       -0.2747
     15 H          12.0334   39.5739    6.8539 H       1  UNL1        0.1563
     16 C           9.4828   39.6151    7.6899 C.3     1  UNL1        0.0859
     17 C           9.3956   38.7165    6.4528 C.3     1  UNL1        0.0173
     18 C           8.6994   39.4393    5.2948 C.3     1  UNL1        0.0650
     19 C          10.8666   38.7693    4.0120 C.3     1  UNL1        0.0722
     20 C           9.4330   39.2056    4.0029 C.2     1  UNL1        0.1511
     21 O           8.8545   39.3691    2.9389 O.2     1  UNL1       -0.2960
@<TRIPOS>BOND
     1    19    20    1
     2    18    20    1
     3    18    17    1
     4    17    16    1
     5    16    12    1
     6    12    13   am
     7     1     2   ar
     8     3     4   ar
     9     3     8   ar
    10     5     6   ar
    11     5    10    1
    12     7     2   ar
    13    13     1    1
    14     8     9   ar
    15    20    21    2
    16    12    14    2
    17     1     9   ar
    18     2     3   ar
    19     4     5   ar
    20     6     7   ar
    21    13    15    1
    22     8    11    1
@<TRIPOS>MOLECULE
Molport-053-332-402 MCULE-4622279178
 21 22 0 0 0
SMALL
GASTEIGER

@<TRIPOS>ATOM
      1 C          12.7073   41.6195    7.4143 C.ar    1  UNL1        0.1550
      2 C          14.0306   42.0066    7.4377 C.ar    1  UNL1        0.0505
      3 C          14.1887   42.7673    6.3142 C.ar    1  UNL1        0.0774
      4 C          15.4065   43.3615    5.9917 C.ar    1  UNL1        0.0299
      5 C          16.4868   43.1547    6.8728 C.ar    1  UNL1        0.0592
      6 C          16.3205   42.3670    8.0377 C.ar    1  UNL1        0.0116
      7 C          15.0748   41.7798    8.3319 C.ar    1  UNL1        0.0052
      8 N          13.0254   42.8348    5.6451 N.ar    1  UNL1       -0.2745
      9 N          12.1123   42.1348    6.3106 N.ar    1  UNL1       -0.1574
     10 CL         18.0442   43.8827    6.5268 Cl      1  UNL1       -0.0822
     11 H          12.8746   43.3215    4.8027 H       1  UNL1        0.1890
     12 C          11.3685   41.3266    9.5397 C.2     1  UNL1        0.2272
     13 N          12.0513   40.7998    8.3921 N.am    1  UNL1       -0.2680
     14 O          11.3309   42.5688    9.7529 O.2     1  UNL1       -0.2747
     15 H          12.0705   39.8232    8.2695 H       1  UNL1        0.1563
     16 C          10.6624   40.3981   10.4815 C.3     1  UNL1        0.0859
     17 C          10.4551   41.0714   11.8414 C.3     1  UNL1        0.0173
     18 C           8.9755   41.0639   12.2399 C.3     1  UNL1        0.0650
     19 C           6.8946   41.5940   10.7632 C.3     1  UNL1        0.0722
     20 C           8.1890   42.0204   11.3864 C.2     1  UNL1        0.1511
     21 O           8.6070   43.1541   11.2034 O.2     1  UNL1       -0.2960
@<TRIPOS>BOND
     1    19    20    1
     2    18    20    1
     3    18    17    1
     4    17    16    1
     5    16    12    1
     6    12    13   am
     7     1     2   ar
     8     3     4   ar
     9     3     8   ar
    10     5     6   ar
    11     5    10    1
    12     7     2   ar
    13    13     1    1
    14     8     9   ar
    15    20    21    2
    16    12    14    2
    17     1     9   ar
    18     2     3   ar
    19     4     5   ar
    20     6     7   ar
    21    13    15    1
    22     8    11    1
@<TRIPOS>MOLECULE
Molport-053-332-402 MCULE-4622279178
 21 22 0 0 0
SMALL
GASTEIGER

@<TRIPOS>ATOM
      1 C          13.4798   40.7972    7.9283 C.ar    1  UNL1        0.1550
      2 C          14.4557   41.7429    7.6947 C.ar    1  UNL1        0.0505
      3 C          15.5157   41.3424    8.4574 C.ar    1  UNL1        0.0774
      4 C          16.7176   42.0460    8.4767 C.ar    1  UNL1        0.0299
      5 C          16.8112   43.1994    7.6723 C.ar    1  UNL1        0.0592
      6 C          15.7117   43.6123    6.8812 C.ar    1  UNL1        0.0116
      7 C          14.5106   42.8771    6.8872 C.ar    1  UNL1        0.0052
      8 N          15.1983   40.2169    9.1193 N.ar    1  UNL1       -0.2745
      9 N          13.9534   39.8754    8.8022 N.ar    1  UNL1       -0.1574
     10 CL         18.3007   44.1246    7.6467 Cl      1  UNL1       -0.0822
     11 H          15.7890   39.7270    9.7360 H       1  UNL1        0.1890
     12 C          11.0799   41.5878    7.8246 C.2     1  UNL1        0.2272
     13 N          12.1670   40.7797    7.3497 N.am    1  UNL1       -0.2680
     14 O          11.2324   42.3571    8.8119 O.2     1  UNL1       -0.2747
     15 H          12.0030   40.1810    6.5855 H       1  UNL1        0.1563
     16 C           9.7552   41.5463    7.1238 C.3     1  UNL1        0.0859
     17 C           8.7834   40.6279    7.8707 C.3     1  UNL1        0.0173
     18 C           7.3586   41.1908    7.8387 C.3     1  UNL1        0.0650
     19 C           6.8225   43.2269    6.3029 C.3     1  UNL1        0.0722
     20 C           7.0390   41.7549    6.4816 C.2     1  UNL1        0.1511
     21 O           6.9593   41.0077    5.5179 O.2     1  UNL1       -0.2960
@<TRIPOS>BOND
     1    19    20    1
     2    18    20    1
     3    18    17    1
     4    17    16    1
     5    16    12    1
     6    12    13   am
     7     1     2   ar
     8     3     4   ar
     9     3     8   ar
    10     5     6   ar
    11     5    10    1
    12     7     2   ar
    13    13     1    1
    14     8     9   ar
    15    20    21    2
    16    12    14    2
    17     1     9   ar
    18     2     3   ar
    19     4     5   ar
    20     6     7   ar
    21    13    15    1
    22     8    11    1
@<TRIPOS>MOLECULE
Molport-053-332-402 MCULE-4622279178
 21 22 0 0 0
SMALL
GASTEIGER

@<TRIPOS>ATOM
      1 C          15.7639   40.1489    9.4737 C.ar    1  UNL1        0.1550
      2 C          15.4292   41.1756    8.6163 C.ar    1  UNL1        0.0505
      3 C          16.5841   41.8888    8.4627 C.ar    1  UNL1        0.0774
      4 C          16.6530   43.0124    7.6424 C.ar    1  UNL1        0.0299
      5 C          15.4799   43.3967    6.9627 C.ar    1  UNL1        0.0592
      6 C          14.2840   42.6553    7.1220 C.ar    1  UNL1        0.0116
      7 C          14.2502   41.5248    7.9611 C.ar    1  UNL1        0.0052
      8 N          17.5642   41.3264    9.1898 N.ar    1  UNL1       -0.2745
      9 N          17.0716   40.2606    9.8128 N.ar    1  UNL1       -0.1574
     10 CL         15.5037   44.7980    5.9085 Cl      1  UNL1       -0.0822
     11 H          18.4921   41.6498    9.2508 H       1  UNL1        0.1890
     12 C          15.0231   38.4727   11.2164 C.2     1  UNL1        0.2272
     13 N          14.8800   39.1212    9.9438 N.am    1  UNL1       -0.2680
     14 O          15.9712   38.7752   11.9906 O.2     1  UNL1       -0.2747
     15 H          14.1350   38.8458    9.3621 H       1  UNL1        0.1563
     16 C          14.0195   37.4469   11.6503 C.3     1  UNL1        0.0859
     17 C          12.8645   37.3708   10.6473 C.3     1  UNL1        0.0173
     18 C          13.3462   36.8436    9.2915 C.3     1  UNL1        0.0650
     19 C          15.0701   34.9446    8.8292 C.3     1  UNL1        0.0722
     20 C          13.7610   35.4018    9.3974 C.2     1  UNL1        0.1511
     21 O          13.0268   34.5990    9.9541 O.2     1  UNL1       -0.2960
@<TRIPOS>BOND
     1    19    20    1
     2    18    20    1
     3    18    17    1
     4    17    16    1
     5    16    12    1
     6    12    13   am
     7     1     2   ar
     8     3     4   ar
     9     3     8   ar
    10     5     6   ar
    11     5    10    1
    12     7     2   ar
    13    13     1    1
    14     8     9   ar
    15    20    21    2
    16    12    14    2
    17     1     9   ar
    18     2     3   ar
    19     4     5   ar
    20     6     7   ar
    21    13    15    1
    22     8    11    1
@<TRIPOS>MOLECULE
Molport-053-332-402 MCULE-4622279178
 21 22 0 0 0
SMALL
GASTEIGER

@<TRIPOS>ATOM
      1 C          12.7617   41.4835    7.1979 C.ar    1  UNL1        0.1550
      2 C          13.8583   42.2990    7.0139 C.ar    1  UNL1        0.0505
      3 C          14.8166   41.7819    7.8386 C.ar    1  UNL1        0.0774
      4 C          16.0931   42.3329    7.9218 C.ar    1  UNL1        0.0299
      5 C          16.3730   43.4549    7.1163 C.ar    1  UNL1        0.0592
      6 C          15.3787   43.9888    6.2610 C.ar    1  UNL1        0.0116
      7 C          14.0976   43.4067    6.2033 C.ar    1  UNL1        0.0052
      8 N          14.3263   40.7131    8.4889 N.ar    1  UNL1       -0.2745
      9 N          13.0685   40.5226    8.1036 N.ar    1  UNL1       -0.1574
     10 CL         17.9643   44.1899    7.1695 Cl      1  UNL1       -0.0822
     11 H          14.8168   40.1629    9.1416 H       1  UNL1        0.1890
     12 C          10.2486   41.2085    7.1350 C.2     1  UNL1        0.2272
     13 N          11.4912   41.6193    6.5453 N.am    1  UNL1       -0.2680
     14 O          10.2223   40.6782    8.2786 O.2     1  UNL1       -0.2747
     15 H          11.4705   42.0157    5.6444 H       1  UNL1        0.1563
     16 C           8.9608   41.4392    6.4028 C.3     1  UNL1        0.0859
     17 C           7.9153   42.0519    7.3394 C.3     1  UNL1        0.0173
     18 C           6.9905   43.0101    6.5812 C.3     1  UNL1        0.0650
     19 C           6.0223   43.3497    8.9768 C.3     1  UNL1        0.0722
     20 C           6.0931   43.7502    7.5345 C.2     1  UNL1        0.1511
     21 O           5.4202   44.6869    7.1303 O.2     1  UNL1       -0.2960
@<TRIPOS>BOND
     1    19    20    1
     2    18    20    1
     3    18    17    1
     4    17    16    1
     5    16    12    1
     6    12    13   am
     7     1     2   ar
     8     3     4   ar
     9     3     8   ar
    10     5     6   ar
    11     5    10    1
    12     7     2   ar
    13    13     1    1
    14     8     9   ar
    15    20    21    2
    16    12    14    2
    17     1     9   ar
    18     2     3   ar
    19     4     5   ar
    20     6     7   ar
    21    13    15    1
    22     8    11    1
@<TRIPOS>MOLECULE
Molport-053-332-402 MCULE-4622279178
 21 22 0 0 0
SMALL
GASTEIGER

@<TRIPOS>ATOM
      1 C          10.3123   42.8689    9.5190 C.ar    1  UNL1        0.1550
      2 C           9.1351   43.0147    8.8158 C.ar    1  UNL1        0.0505
      3 C           8.4467   43.9829    9.4901 C.ar    1  UNL1        0.0774
      4 C           7.1953   44.4264    9.0689 C.ar    1  UNL1        0.0299
      5 C           6.6525   43.8407    7.9078 C.ar    1  UNL1        0.0592
      6 C           7.3682   42.8381    7.2094 C.ar    1  UNL1        0.0116
      7 C           8.6311   42.4127    7.6648 C.ar    1  UNL1        0.0052
      8 N           9.1664   44.3989   10.5459 N.ar    1  UNL1       -0.2745
      9 N          10.3102   43.7223   10.5723 N.ar    1  UNL1       -0.1574
     10 CL          5.0840   44.3615    7.3215 Cl      1  UNL1       -0.0822
     11 H           8.8923   45.0894   11.1918 H       1  UNL1        0.1890
     12 C          11.4144   40.5962    9.6442 C.2     1  UNL1        0.2272
     13 N          11.3770   41.9612    9.2015 N.am    1  UNL1       -0.2680
     14 O          10.4941   40.1283   10.3680 O.2     1  UNL1       -0.2747
     15 H          12.1224   42.2924    8.6501 H       1  UNL1        0.1563
     16 C          12.5400   39.7022    9.2183 C.3     1  UNL1        0.0859
     17 C          13.7886   39.9753   10.0621 C.3     1  UNL1        0.0173
     18 C          13.5971   39.4891   11.5026 C.3     1  UNL1        0.0650
     19 C          14.1016   36.9344   11.4003 C.3     1  UNL1        0.0722
     20 C          14.5010   38.3234   11.7961 C.2     1  UNL1        0.1511
     21 O          15.5700   38.5114   12.3576 O.2     1  UNL1       -0.2960
@<TRIPOS>BOND
     1    19    20    1
     2    18    20    1
     3    18    17    1
     4    17    16    1
     5    16    12    1
     6    12    13   am
     7     1     2   ar
     8     3     4   ar
     9     3     8   ar
    10     5     6   ar
    11     5    10    1
    12     7     2   ar
    13    13     1    1
    14     8     9   ar
    15    20    21    2
    16    12    14    2
    17     1     9   ar
    18     2     3   ar
    19     4     5   ar
    20     6     7   ar
    21    13    15    1
    22     8    11    1
@<TRIPOS>MOLECULE
Molport-053-332-402 MCULE-4622279178
 21 22 0 0 0
SMALL
GASTEIGER

@<TRIPOS>ATOM
      1 C          12.3645   40.4473    7.2657 C.ar    1  UNL1        0.1550
      2 C          13.4224   41.3317    7.2484 C.ar    1  UNL1        0.0505
      3 C          13.0646   42.2819    6.3347 C.ar    1  UNL1        0.0774
      4 C          13.8827   43.3713    6.0453 C.ar    1  UNL1        0.0299
      5 C          15.1080   43.4683    6.7346 C.ar    1  UNL1        0.0592
      6 C          15.4767   42.4829    7.6825 C.ar    1  UNL1        0.0116
      7 C          14.6251   41.3935    7.9492 C.ar    1  UNL1        0.0052
      8 N          11.8569   41.9877    5.8242 N.ar    1  UNL1       -0.2745
      9 N          11.4203   40.8658    6.3876 N.ar    1  UNL1       -0.1574
     10 CL         16.1791   44.8208    6.4207 Cl      1  UNL1       -0.0822
     11 H          11.3759   42.5150    5.1461 H       1  UNL1        0.1890
     12 C          11.2404   39.0629    9.0587 C.2     1  UNL1        0.2272
     13 N          12.2657   39.2668    8.0750 N.am    1  UNL1       -0.2680
     14 O          10.3674   39.9474    9.2723 O.2     1  UNL1       -0.2747
     15 H          12.9375   38.5583    7.9489 H       1  UNL1        0.1563
     16 C          11.1811   37.7734    9.8211 C.3     1  UNL1        0.0859
     17 C          12.5010   37.0090    9.6828 C.3     1  UNL1        0.0173
     18 C          13.0668   36.6336   11.0565 C.3     1  UNL1        0.0650
     19 C          14.0730   38.9352   11.7504 C.3     1  UNL1        0.0722
     20 C          14.2552   37.4908   11.3955 C.2     1  UNL1        0.1511
     21 O          15.3762   37.0044   11.3849 O.2     1  UNL1       -0.2960
@<TRIPOS>BOND
     1    19    20    1
     2    18    20    1
     3    18    17    1
     4    17    16    1
     5    16    12    1
     6    12    13   am
     7     1     2   ar
     8     3     4   ar
     9     3     8   ar
    10     5     6   ar
    11     5    10    1
    12     7     2   ar
    13    13     1    1
    14     8     9   ar
    15    20    21    2
    16    12    14    2
    17     1     9   ar
    18     2     3   ar
    19     4     5   ar
    20     6     7   ar
    21    13    15    1
    22     8    11    1
@<TRIPOS>MOLECULE
Molport-053-332-402 MCULE-4622279178
 21 22 0 0 0
SMALL
GASTEIGER

@<TRIPOS>ATOM
      1 C          15.7432   39.5649    9.5680 C.ar    1  UNL1        0.1550
      2 C          15.4987   40.6920    8.8120 C.ar    1  UNL1        0.0505
      3 C          16.6612   41.4069    8.8701 C.ar    1  UNL1        0.0774
      4 C          16.8138   42.6213    8.2055 C.ar    1  UNL1        0.0299
      5 C          15.7185   43.0976    7.4574 C.ar    1  UNL1        0.0592
      6 C          14.5146   42.3544    7.3972 C.ar    1  UNL1        0.0116
      7 C          14.3950   41.1304    8.0832 C.ar    1  UNL1        0.0052
      8 N          17.5600   40.7501    9.6227 N.ar    1  UNL1       -0.2745
      9 N          17.0071   39.6212   10.0549 N.ar    1  UNL1       -0.1574
     10 CL         15.8503   44.6167    6.5912 Cl      1  UNL1       -0.0822
     11 H          18.4752   41.0541    9.8208 H       1  UNL1        0.1890
     12 C          14.3128   38.1665   11.1151 C.2     1  UNL1        0.2272
     13 N          14.8174   38.4966    9.8124 N.am    1  UNL1       -0.2680
     14 O          14.6875   38.8094   12.1330 O.2     1  UNL1       -0.2747
     15 H          14.5115   37.9609    9.0451 H       1  UNL1        0.1563
     16 C          13.3044   37.0680   11.2705 C.3     1  UNL1        0.0859
     17 C          12.5999   36.7962    9.9380 C.3     1  UNL1        0.0173
     18 C          11.2034   37.4266    9.9146 C.3     1  UNL1        0.0650
     19 C          11.0082   39.9955   10.3068 C.3     1  UNL1        0.0722
     20 C          11.2638   38.8359    9.3928 C.2     1  UNL1        0.1511
     21 O          11.5269   39.0360    8.2163 O.2     1  UNL1       -0.2960
@<TRIPOS>BOND
     1    19    20    1
     2    18    20    1
     3    18    17    1
     4    17    16    1
     5    16    12    1
     6    12    13   am
     7     1     2   ar
     8     3     4   ar
     9     3     8   ar
    10     5     6   ar
    11     5    10    1
    12     7     2   ar
    13    13     1    1
    14     8     9   ar
    15    20    21    2
    16    12    14    2
    17     1     9   ar
    18     2     3   ar
    19     4     5   ar
    20     6     7   ar
    21    13    15    1
    22     8    11    1
@<TRIPOS>MOLECULE
Molport-053-332-402 MCULE-4622279178
 21 22 0 0 0
SMALL
GASTEIGER

@<TRIPOS>ATOM
      1 C          12.9608   40.6474    8.0843 C.ar    1  UNL1        0.1550
      2 C          13.8442   41.5943    7.6104 C.ar    1  UNL1        0.0505
      3 C          14.9978   41.3706    8.3068 C.ar    1  UNL1        0.0774
      4 C          16.1464   42.1292    8.0935 C.ar    1  UNL1        0.0299
      5 C          16.0842   43.1479    7.1218 C.ar    1  UNL1        0.0592
      6 C          14.8878   43.3774    6.3999 C.ar    1  UNL1        0.0116
      7 C          13.7445   42.5917    6.6427 C.ar    1  UNL1        0.0052
      8 N          14.8220   40.3460    9.1582 N.ar    1  UNL1       -0.2745
      9 N          13.5776   39.8968    9.0296 N.ar    1  UNL1       -0.1574
     10 CL         17.4992   44.1328    6.8009 Cl      1  UNL1       -0.0822
     11 H          15.5013   39.9878    9.7742 H       1  UNL1        0.1890
     12 C          10.7736   39.3779    8.0735 C.2     1  UNL1        0.2272
     13 N          11.6019   40.4741    7.6577 N.am    1  UNL1       -0.2680
     14 O          11.2247   38.4840    8.8399 O.2     1  UNL1       -0.2747
     15 H          11.2168   41.1431    7.0468 H       1  UNL1        0.1563
     16 C           9.3459   39.3058    7.6217 C.3     1  UNL1        0.0859
     17 C           9.2531   38.6391    6.2460 C.3     1  UNL1        0.0173
     18 C           8.9802   39.6741    5.1495 C.3     1  UNL1        0.0650
     19 C          10.9785   38.7225    3.7737 C.3     1  UNL1        0.0722
     20 C           9.5701   39.2302    3.8392 C.2     1  UNL1        0.1511
     21 O           8.8946   39.2805    2.8221 O.2     1  UNL1       -0.2960
@<TRIPOS>BOND
     1    19    20    1
     2    18    20    1
     3    18    17    1
     4    17    16    1
     5    16    12    1
     6    12    13   am
     7     1     2   ar
     8     3     4   ar
     9     3     8   ar
    10     5     6   ar
    11     5    10    1
    12     7     2   ar
    13    13     1    1
    14     8     9   ar
    15    20    21    2
    16    12    14    2
    17     1     9   ar
    18     2     3   ar
    19     4     5   ar
    20     6     7   ar
    21    13    15    1
    22     8    11    1
@<TRIPOS>MOLECULE
Molport-053-332-402 MCULE-4622279178
 21 22 0 0 0
SMALL
GASTEIGER

@<TRIPOS>ATOM
      1 C          14.9375   40.1532    9.2624 C.ar    1  UNL1        0.1550
      2 C          15.4401   41.2299    8.5628 C.ar    1  UNL1        0.0505
      3 C          16.7623   41.2768    8.9024 C.ar    1  UNL1        0.0774
      4 C          17.6249   42.2356    8.3765 C.ar    1  UNL1        0.0299
      5 C          17.0870   43.1686    7.4677 C.ar    1  UNL1        0.0592
      6 C          15.7163   43.1176    7.1157 C.ar    1  UNL1        0.0116
      7 C          14.8724   42.1348    7.6682 C.ar    1  UNL1        0.0052
      8 N          17.0447   40.2843    9.7632 N.ar    1  UNL1       -0.2745
      9 N          15.9335   39.5911    9.9902 N.ar    1  UNL1       -0.1574
     10 CL         18.1232   44.3961    6.7641 Cl      1  UNL1       -0.0822
     11 H          17.9271   40.1013   10.1596 H       1  UNL1        0.1890
     12 C          12.7808   39.5113   10.4167 C.2     1  UNL1        0.2272
     13 N          13.5793   39.6914    9.2375 N.am    1  UNL1       -0.2680
     14 O          13.2597   39.7410   11.5603 O.2     1  UNL1       -0.2747
     15 H          13.1730   39.4869    8.3644 H       1  UNL1        0.1563
     16 C          11.3512   39.0772   10.2930 C.3     1  UNL1        0.0859
     17 C          10.4480   40.2828   10.0169 C.3     1  UNL1        0.0173
     18 C          10.1374   41.0458   11.3090 C.3     1  UNL1        0.0650
     19 C          10.1395   43.4930   10.4131 C.3     1  UNL1        0.0722
     20 C           9.4100   42.3276   11.0090 C.2     1  UNL1        0.1511
     21 O           8.2152   42.4172   11.2495 O.2     1  UNL1       -0.2960
@<TRIPOS>BOND
     1    19    20    1
     2    18    20    1
     3    18    17    1
     4    17    16    1
     5    16    12    1
     6    12    13   am
     7     1     2   ar
     8     3     4   ar
     9     3     8   ar
    10     5     6   ar
    11     5    10    1
    12     7     2   ar
    13    13     1    1
    14     8     9   ar
    15    20    21    2
    16    12    14    2
    17     1     9   ar
    18     2     3   ar
    19     4     5   ar
    20     6     7   ar
    21    13    15    1
    22     8    11    1
