@<TRIPOS>MOLECULE
MolPort-020-278-612 MCULE-7584097762 PubChem-110255484
 24 26 0 0 0
SMALL
GASTEIGER

@<TRIPOS>ATOM
      1 C          14.2724   38.8403   11.9095 C.3     1  UNL1        0.0522
      2 C          13.6132   39.6888   10.8835 C.ar    1  UNL1        0.0635
      3 C          14.3390   40.1449    9.7853 C.ar    1  UNL1        0.0492
      4 C          13.6920   40.9421    8.8348 C.ar    1  UNL1        0.1368
      5 C          11.6834   40.7964   10.0854 C.ar    1  UNL1        0.1411
      6 N          12.3789   41.2481    9.0086 N.ar    1  UNL1       -0.2158
      7 N          12.3033   40.0200   11.0155 N.ar    1  UNL1       -0.2349
      8 C          10.2426   41.1562   10.2335 C.3     1  UNL1        0.0746
      9 C           9.5179   41.0329    8.8999 C.3     1  UNL1        0.0104
     10 C           8.0637   41.4400    9.0733 C.3     1  UNL1        0.0178
     11 C           7.9889   42.8578    9.6481 C.3     1  UNL1        0.0721
     12 C          10.0964   42.5807   10.7821 C.3     1  UNL1        0.0796
     13 N           8.6854   42.9767   10.9425 N.3     1  UNL1       -0.2736
     14 C           8.0184   42.1780   11.9883 C.3     1  UNL1        0.0576
     15 C           8.9612   41.1244   12.5521 C.3     1  UNL1        0.0173
     16 C           6.8037   41.4514   11.4279 C.3     1  UNL1        0.0173
     17 N          14.3738   41.4481    7.6783 N.pl3   1  UNL1       -0.2679
     18 H          14.0015   41.1877    6.8049 H       1  UNL1        0.1565
     19 C          15.5348   42.2894    7.6472 C.ar    1  UNL1        0.2218
     20 C          17.7765   42.7406    8.2631 C.ar    1  UNL1        0.1034
     21 C          17.7413   43.9414    7.5574 C.ar    1  UNL1        0.0414
     22 C          16.5626   44.2856    6.8984 C.ar    1  UNL1        0.1034
     23 N          16.6796   41.9400    8.2959 N.ar    1  UNL1       -0.2120
     24 N          15.4863   43.4583    6.9546 N.ar    1  UNL1       -0.2120
@<TRIPOS>BOND
     1     1     2    1
     2     2     7   ar
     3     3     4   ar
     4     4    17    1
     5     5     6   ar
     6     8     5    1
     7     8     9    1
     8     9    10    1
     9    10    11    1
    10    11    13    1
    11    12    13    1
    12    12     8    1
    13    14    13    1
    14    14    15    1
    15    14    16    1
    16    19    24   ar
    17    20    23   ar
    18    21    22   ar
    19    17    19    1
    20     2     3   ar
    21     4     6   ar
    22     5     7   ar
    23    19    23   ar
    24    20    21   ar
    25    22    24   ar
    26    17    18    1
@<TRIPOS>MOLECULE
MolPort-020-278-612 MCULE-7584097762 PubChem-110255484
 24 26 0 0 0
SMALL
GASTEIGER

@<TRIPOS>ATOM
      1 C          13.8160   39.0235   11.6875 C.3     1  UNL1        0.0522
      2 C          13.3334   39.9685   10.6476 C.ar    1  UNL1        0.0635
      3 C          14.1525   40.2956    9.5692 C.ar    1  UNL1        0.0492
      4 C          13.6715   41.1881    8.6050 C.ar    1  UNL1        0.1368
      5 C          11.6359   41.3810    9.8044 C.ar    1  UNL1        0.1411
      6 N          12.4238   41.7089    8.7466 N.ar    1  UNL1       -0.2158
      7 N          12.0941   40.5135   10.7477 N.ar    1  UNL1       -0.2349
      8 C          10.2719   41.9761    9.9173 C.3     1  UNL1        0.0746
      9 C           9.5290   41.3946   11.1126 C.3     1  UNL1        0.0104
     10 C           8.1324   41.9909   11.1810 C.3     1  UNL1        0.0178
     11 C           7.3982   41.7401    9.8604 C.3     1  UNL1        0.0721
     12 C           9.4708   41.7357    8.6321 C.3     1  UNL1        0.0796
     13 N           8.1139   42.3081    8.7030 N.3     1  UNL1       -0.2736
     14 C           8.1546   43.7815    8.7650 C.3     1  UNL1        0.0576
     15 C           8.7834   44.2538   10.0682 C.3     1  UNL1        0.0173
     16 C           6.7520   44.3691    8.6949 C.3     1  UNL1        0.0173
     17 N          14.4569   41.5717    7.4673 N.pl3   1  UNL1       -0.2679
     18 H          14.1880   41.1856    6.6025 H       1  UNL1        0.1565
     19 C          15.5884   42.4526    7.4439 C.ar    1  UNL1        0.2218
     20 C          16.7221   44.3370    6.5652 C.ar    1  UNL1        0.1034
     21 C          17.7863   44.1183    7.4375 C.ar    1  UNL1        0.0414
     22 C          17.7111   43.0366    8.3128 C.ar    1  UNL1        0.1034
     23 N          15.6479   43.5056    6.5831 N.ar    1  UNL1       -0.2120
     24 N          16.6198   42.2274    8.3007 N.ar    1  UNL1       -0.2120
@<TRIPOS>BOND
     1     1     2    1
     2     2     7   ar
     3     3     4   ar
     4     4    17    1
     5     5     6   ar
     6     8     5    1
     7     8     9    1
     8     9    10    1
     9    10    11    1
    10    11    13    1
    11    12    13    1
    12    12     8    1
    13    14    13    1
    14    14    15    1
    15    14    16    1
    16    19    24   ar
    17    20    23   ar
    18    21    22   ar
    19    17    19    1
    20     2     3   ar
    21     4     6   ar
    22     5     7   ar
    23    19    23   ar
    24    20    21   ar
    25    22    24   ar
    26    17    18    1
@<TRIPOS>MOLECULE
MolPort-020-278-612 MCULE-7584097762 PubChem-110255484
 24 26 0 0 0
SMALL
GASTEIGER

@<TRIPOS>ATOM
      1 C          13.0156   39.9276   10.9062 C.3     1  UNL1        0.0522
      2 C          12.2312   40.5200    9.7921 C.ar    1  UNL1        0.0635
      3 C          12.8872   41.0619    8.6890 C.ar    1  UNL1        0.0492
      4 C          12.1226   41.6126    7.6548 C.ar    1  UNL1        0.1368
      5 C          10.1404   41.0719    8.8371 C.ar    1  UNL1        0.1411
      6 N          10.7669   41.6037    7.7546 N.ar    1  UNL1       -0.2158
      7 N          10.8748   40.5333    9.8485 N.ar    1  UNL1       -0.2349
      8 C           8.6494   41.0825    8.9024 C.3     1  UNL1        0.0746
      9 C           8.0494   40.8357    7.5248 C.3     1  UNL1        0.0104
     10 C           6.5329   40.8883    7.6153 C.3     1  UNL1        0.0178
     11 C           6.0969   42.2315    8.2085 C.3     1  UNL1        0.0721
     12 C           8.1441   42.4164    9.4653 C.3     1  UNL1        0.0796
     13 N           6.6728   42.4687    9.5452 N.3     1  UNL1       -0.2736
     14 C           6.1536   41.5049   10.5341 C.3     1  UNL1        0.0576
     15 C           4.7271   41.8526   10.9353 C.3     1  UNL1        0.0173
     16 C           6.9994   41.5133   11.7998 C.3     1  UNL1        0.0173
     17 N          12.7273   42.1883    6.4879 N.pl3   1  UNL1       -0.2679
     18 H          12.3000   41.9762    5.6267 H       1  UNL1        0.1565
     19 C          13.8820   43.0368    6.4308 C.ar    1  UNL1        0.2218
     20 C          14.9478   45.0312    5.7274 C.ar    1  UNL1        0.1034
     21 C          16.1293   44.6332    6.3495 C.ar    1  UNL1        0.0414
     22 C          16.1457   43.4082    7.0135 C.ar    1  UNL1        0.1034
     23 N          13.8511   44.2312    5.7783 N.ar    1  UNL1       -0.2120
     24 N          15.0282   42.6360    7.0424 N.ar    1  UNL1       -0.2120
@<TRIPOS>BOND
     1     1     2    1
     2     2     7   ar
     3     3     4   ar
     4     4    17    1
     5     5     6   ar
     6     8     5    1
     7     8     9    1
     8     9    10    1
     9    10    11    1
    10    11    13    1
    11    12    13    1
    12    12     8    1
    13    14    13    1
    14    14    15    1
    15    14    16    1
    16    19    24   ar
    17    20    23   ar
    18    21    22   ar
    19    17    19    1
    20     2     3   ar
    21     4     6   ar
    22     5     7   ar
    23    19    23   ar
    24    20    21   ar
    25    22    24   ar
    26    17    18    1
@<TRIPOS>MOLECULE
MolPort-020-278-612 MCULE-7584097762 PubChem-110255484
 24 26 0 0 0
SMALL
GASTEIGER

@<TRIPOS>ATOM
      1 C           9.2840   40.9583   14.4590 C.3     1  UNL1        0.0522
      2 C           9.1921   41.2270   13.0006 C.ar    1  UNL1        0.0635
      3 C          10.3399   41.1922   12.2120 C.ar    1  UNL1        0.0492
      4 C          10.2231   41.4490   10.8416 C.ar    1  UNL1        0.1368
      5 C           7.8869   41.7550   11.1018 C.ar    1  UNL1        0.1411
      6 N           8.9982   41.7241   10.3200 N.ar    1  UNL1       -0.2158
      7 N           7.9895   41.5063   12.4359 N.ar    1  UNL1       -0.2349
      8 C           6.5624   42.0596   10.4849 C.3     1  UNL1        0.0746
      9 C           5.4287   41.6043   11.3938 C.3     1  UNL1        0.0104
     10 C           4.0948   41.8936   10.7246 C.3     1  UNL1        0.0178
     11 C           4.0480   41.2170    9.3513 C.3     1  UNL1        0.0721
     12 C           6.4395   41.3865    9.1126 C.3     1  UNL1        0.0796
     13 N           5.1422   41.6618    8.4684 N.3     1  UNL1       -0.2736
     14 C           5.0071   43.0891    8.1204 C.3     1  UNL1        0.0576
     15 C           6.2607   43.8632    8.5024 C.3     1  UNL1        0.0173
     16 C           3.8362   43.7220    8.8592 C.3     1  UNL1        0.0173
     17 N          11.3600   41.4306    9.9666 N.pl3   1  UNL1       -0.2679
     18 H          11.2985   41.9934    9.1611 H       1  UNL1        0.1565
     19 C          12.5757   40.6873   10.1294 C.ar    1  UNL1        0.2218
     20 C          14.7243   40.0477    9.3663 C.ar    1  UNL1        0.1034
     21 C          14.8949   39.2388   10.4879 C.ar    1  UNL1        0.0414
     22 C          13.8635   39.1809   11.4232 C.ar    1  UNL1        0.1034
     23 N          13.5748   40.7539    9.2071 N.ar    1  UNL1       -0.2120
     24 N          12.7286   39.9020   11.2286 N.ar    1  UNL1       -0.2120
@<TRIPOS>BOND
     1     1     2    1
     2     2     7   ar
     3     3     4   ar
     4     4    17    1
     5     5     6   ar
     6     8     5    1
     7     8     9    1
     8     9    10    1
     9    10    11    1
    10    11    13    1
    11    12    13    1
    12    12     8    1
    13    14    13    1
    14    14    15    1
    15    14    16    1
    16    19    24   ar
    17    20    23   ar
    18    21    22   ar
    19    17    19    1
    20     2     3   ar
    21     4     6   ar
    22     5     7   ar
    23    19    23   ar
    24    20    21   ar
    25    22    24   ar
    26    17    18    1
@<TRIPOS>MOLECULE
MolPort-020-278-612 MCULE-7584097762 PubChem-110255484
 24 26 0 0 0
SMALL
GASTEIGER

@<TRIPOS>ATOM
      1 C          10.0769   39.5085    3.6107 C.3     1  UNL1        0.0522
      2 C          10.1638   40.3245    4.8493 C.ar    1  UNL1        0.0635
      3 C          11.4012   40.5556    5.4460 C.ar    1  UNL1        0.0492
      4 C          11.4527   41.3280    6.6115 C.ar    1  UNL1        0.1368
      5 C           9.0986   41.5951    6.5341 C.ar    1  UNL1        0.1411
      6 N          10.2989   41.8292    7.1269 N.ar    1  UNL1       -0.2158
      7 N           9.0375   40.8454    5.3998 N.ar    1  UNL1       -0.2349
      8 C           7.8580   42.1675    7.1347 C.3     1  UNL1        0.0746
      9 C           7.3016   43.2820    6.2589 C.3     1  UNL1        0.0104
     10 C           6.0614   43.8697    6.9127 C.3     1  UNL1        0.0178
     11 C           6.4021   44.3538    8.3254 C.3     1  UNL1        0.0721
     12 C           8.1375   42.6973    8.5464 C.3     1  UNL1        0.0796
     13 N           6.9355   43.2737    9.1760 N.3     1  UNL1       -0.2736
     14 C           5.9161   42.2394    9.4355 C.3     1  UNL1        0.0576
     15 C           4.5405   42.8650    9.6176 C.3     1  UNL1        0.0173
     16 C           6.2372   41.4639   10.7056 C.3     1  UNL1        0.0173
     17 N          12.6899   41.6086    7.2817 N.pl3   1  UNL1       -0.2679
     18 H          12.8616   41.1024    8.1085 H       1  UNL1        0.1565
     19 C          13.7054   42.5410    6.8867 C.ar    1  UNL1        0.2218
     20 C          14.3850   44.4792    5.7079 C.ar    1  UNL1        0.1034
     21 C          15.6934   44.3068    6.1550 C.ar    1  UNL1        0.0414
     22 C          15.9709   43.2194    6.9811 C.ar    1  UNL1        0.1034
     23 N          13.4193   43.5989    6.0790 N.ar    1  UNL1       -0.2120
     24 N          14.9778   42.3606    7.3304 N.ar    1  UNL1       -0.2120
@<TRIPOS>BOND
     1     1     2    1
     2     2     7   ar
     3     3     4   ar
     4     4    17    1
     5     5     6   ar
     6     8     5    1
     7     8     9    1
     8     9    10    1
     9    10    11    1
    10    11    13    1
    11    12    13    1
    12    12     8    1
    13    14    13    1
    14    14    15    1
    15    14    16    1
    16    19    24   ar
    17    20    23   ar
    18    21    22   ar
    19    17    19    1
    20     2     3   ar
    21     4     6   ar
    22     5     7   ar
    23    19    23   ar
    24    20    21   ar
    25    22    24   ar
    26    17    18    1
@<TRIPOS>MOLECULE
MolPort-020-278-612 MCULE-7584097762 PubChem-110255484
 24 26 0 0 0
SMALL
GASTEIGER

@<TRIPOS>ATOM
      1 C          10.1662   39.8692    3.9817 C.3     1  UNL1        0.0522
      2 C          10.4361   40.5487    5.2751 C.ar    1  UNL1        0.0635
      3 C          11.7488   40.7787    5.6808 C.ar    1  UNL1        0.0492
      4 C          11.9728   41.4209    6.9034 C.ar    1  UNL1        0.1368
      5 C           9.6324   41.5695    7.2498 C.ar    1  UNL1        0.1411
      6 N          10.9079   41.8009    7.6582 N.ar    1  UNL1       -0.2158
      7 N           9.4036   40.9459    6.0620 N.ar    1  UNL1       -0.2349
      8 C           8.4942   42.0064    8.1108 C.3     1  UNL1        0.0746
      9 C           8.6627   41.4829    9.5308 C.3     1  UNL1        0.0104
     10 C           7.4728   41.9118   10.3740 C.3     1  UNL1        0.0178
     11 C           6.1752   41.4234    9.7231 C.3     1  UNL1        0.0721
     12 C           7.1608   41.5244    7.5269 C.3     1  UNL1        0.0796
     13 N           6.0084   41.9347    8.3500 N.3     1  UNL1       -0.2736
     14 C           5.8340   43.3996    8.3384 C.3     1  UNL1        0.0576
     15 C           4.4104   43.7808    8.7190 C.3     1  UNL1        0.0173
     16 C           6.1050   43.9700    6.9532 C.3     1  UNL1        0.0173
     17 N          13.2962   41.6920    7.3869 N.pl3   1  UNL1       -0.2679
     18 H          13.6331   41.0934    8.0921 H       1  UNL1        0.1565
     19 C          14.1850   42.7341    6.9617 C.ar    1  UNL1        0.2218
     20 C          14.5961   44.7449    5.7801 C.ar    1  UNL1        0.1034
     21 C          15.9333   44.7146    6.1701 C.ar    1  UNL1        0.0414
     22 C          16.3640   43.6580    6.9702 C.ar    1  UNL1        0.1034
     23 N          13.7499   43.7603    6.1800 N.ar    1  UNL1       -0.2120
     24 N          15.4873   42.6920    7.3497 N.ar    1  UNL1       -0.2120
@<TRIPOS>BOND
     1     1     2    1
     2     2     7   ar
     3     3     4   ar
     4     4    17    1
     5     5     6   ar
     6     8     5    1
     7     8     9    1
     8     9    10    1
     9    10    11    1
    10    11    13    1
    11    12    13    1
    12    12     8    1
    13    14    13    1
    14    14    15    1
    15    14    16    1
    16    19    24   ar
    17    20    23   ar
    18    21    22   ar
    19    17    19    1
    20     2     3   ar
    21     4     6   ar
    22     5     7   ar
    23    19    23   ar
    24    20    21   ar
    25    22    24   ar
    26    17    18    1
@<TRIPOS>MOLECULE
MolPort-020-278-612 MCULE-7584097762 PubChem-110255484
 24 26 0 0 0
SMALL
GASTEIGER

@<TRIPOS>ATOM
      1 C          13.7730   37.0846   11.4155 C.3     1  UNL1        0.0522
      2 C          13.7959   38.4008   10.7267 C.ar    1  UNL1        0.0635
      3 C          14.9984   38.9158   10.2477 C.ar    1  UNL1        0.0492
      4 C          14.9896   40.1574    9.6029 C.ar    1  UNL1        0.1368
      5 C          12.6474   40.3093    9.9352 C.ar    1  UNL1        0.1411
      6 N          13.8131   40.8239    9.4624 N.ar    1  UNL1       -0.2158
      7 N          12.6450   39.1021   10.5636 N.ar    1  UNL1       -0.2349
      8 C          11.3794   41.0759    9.7563 C.3     1  UNL1        0.0746
      9 C          10.8176   41.5076   11.1041 C.3     1  UNL1        0.0104
     10 C           9.5098   42.2531   10.8933 C.3     1  UNL1        0.0178
     11 C           8.5325   41.3711   10.1102 C.3     1  UNL1        0.0721
     12 C          10.3439   40.2357    8.9992 C.3     1  UNL1        0.0796
     13 N           9.0735   40.9575    8.8022 N.3     1  UNL1       -0.2736
     14 C           9.2457   42.1126    7.9009 C.3     1  UNL1        0.0576
     15 C           7.9254   42.8404    7.6911 C.3     1  UNL1        0.0173
     16 C           9.7447   41.6676    6.5333 C.3     1  UNL1        0.0173
     17 N          16.1880   40.7511    9.0833 N.pl3   1  UNL1       -0.2679
     18 H          17.0253   40.2620    9.2536 H       1  UNL1        0.1565
     19 C          16.3075   41.9746    8.3446 C.ar    1  UNL1        0.2218
     20 C          17.4508   43.9901    7.8563 C.ar    1  UNL1        0.1034
     21 C          16.4930   44.3152    6.8981 C.ar    1  UNL1        0.0414
     22 C          15.4394   43.4272    6.6899 C.ar    1  UNL1        0.1034
     23 N          17.3425   42.8325    8.5589 N.ar    1  UNL1       -0.2120
     24 N          15.3656   42.2791    7.4126 N.ar    1  UNL1       -0.2120
@<TRIPOS>BOND
     1     1     2    1
     2     2     7   ar
     3     3     4   ar
     4     4    17    1
     5     5     6   ar
     6     8     5    1
     7     8     9    1
     8     9    10    1
     9    10    11    1
    10    11    13    1
    11    12    13    1
    12    12     8    1
    13    14    13    1
    14    14    15    1
    15    14    16    1
    16    19    24   ar
    17    20    23   ar
    18    21    22   ar
    19    17    19    1
    20     2     3   ar
    21     4     6   ar
    22     5     7   ar
    23    19    23   ar
    24    20    21   ar
    25    22    24   ar
    26    17    18    1
@<TRIPOS>MOLECULE
MolPort-020-278-612 MCULE-7584097762 PubChem-110255484
 24 26 0 0 0
SMALL
GASTEIGER

@<TRIPOS>ATOM
      1 C          10.5192   40.2996    4.3564 C.3     1  UNL1        0.0522
      2 C          10.9302   40.8735    5.6637 C.ar    1  UNL1        0.0635
      3 C          12.2821   41.0035    5.9736 C.ar    1  UNL1        0.0492
      4 C          12.6396   41.5476    7.2120 C.ar    1  UNL1        0.1368
      5 C          10.3469   41.7994    7.7590 C.ar    1  UNL1        0.1411
      6 N          11.6621   41.9326    8.0747 N.ar    1  UNL1       -0.2158
      7 N           9.9884   41.2717    6.5568 N.ar    1  UNL1       -0.2349
      8 C           9.3082   42.2378    8.7370 C.3     1  UNL1        0.0746
      9 C           9.9177   43.1433    9.7987 C.3     1  UNL1        0.0104
     10 C           8.8462   43.5437   10.7998 C.3     1  UNL1        0.0178
     11 C           8.2063   42.2889   11.4016 C.3     1  UNL1        0.0721
     12 C           8.6442   41.0241    9.3984 C.3     1  UNL1        0.0796
     13 N           7.6106   41.4144   10.3746 N.3     1  UNL1       -0.2736
     14 C           6.4641   42.0650    9.7123 C.3     1  UNL1        0.0576
     15 C           5.2483   42.0878   10.6279 C.3     1  UNL1        0.0173
     16 C           6.0691   41.3171    8.4466 C.3     1  UNL1        0.0173
     17 N          14.0108   41.7126    7.6009 N.pl3   1  UNL1       -0.2679
     18 H          14.3636   41.0542    8.2422 H       1  UNL1        0.1565
     19 C          14.9269   42.7256    7.1635 C.ar    1  UNL1        0.2218
     20 C          15.3932   44.7052    5.9503 C.ar    1  UNL1        0.1034
     21 C          16.7270   44.6497    6.3493 C.ar    1  UNL1        0.0414
     22 C          17.1274   43.5971    7.1701 C.ar    1  UNL1        0.1034
     23 N          14.5212   43.7482    6.3616 N.ar    1  UNL1       -0.2120
     24 N          16.2255   42.6590    7.5605 N.ar    1  UNL1       -0.2120
@<TRIPOS>BOND
     1     1     2    1
     2     2     7   ar
     3     3     4   ar
     4     4    17    1
     5     5     6   ar
     6     8     5    1
     7     8     9    1
     8     9    10    1
     9    10    11    1
    10    11    13    1
    11    12    13    1
    12    12     8    1
    13    14    13    1
    14    14    15    1
    15    14    16    1
    16    19    24   ar
    17    20    23   ar
    18    21    22   ar
    19    17    19    1
    20     2     3   ar
    21     4     6   ar
    22     5     7   ar
    23    19    23   ar
    24    20    21   ar
    25    22    24   ar
    26    17    18    1
@<TRIPOS>MOLECULE
MolPort-020-278-612 MCULE-7584097762 PubChem-110255484
 24 26 0 0 0
SMALL
GASTEIGER

@<TRIPOS>ATOM
      1 C          12.0580   35.3243   10.8652 C.3     1  UNL1        0.0522
      2 C          12.6508   36.6823   10.7563 C.ar    1  UNL1        0.0635
      3 C          13.8960   36.9464   11.3223 C.ar    1  UNL1        0.0492
      4 C          14.4297   38.2343   11.2038 C.ar    1  UNL1        0.1368
      5 C          12.5073   38.9158    9.9958 C.ar    1  UNL1        0.1411
      6 N          13.7214   39.1879   10.5427 N.ar    1  UNL1       -0.2158
      7 N          11.9794   37.6662   10.1051 N.ar    1  UNL1       -0.2349
      8 C          11.7666   39.9940    9.2772 C.3     1  UNL1        0.0746
      9 C          11.4054   41.1252   10.2304 C.3     1  UNL1        0.0104
     10 C          10.6214   42.1898    9.4803 C.3     1  UNL1        0.0178
     11 C           9.3863   41.5596    8.8294 C.3     1  UNL1        0.0721
     12 C          10.4988   39.4326    8.6223 C.3     1  UNL1        0.0796
     13 N           9.7356   40.4679    7.9016 N.3     1  UNL1       -0.2736
     14 C          10.4835   40.9719    6.7341 C.3     1  UNL1        0.0576
     15 C           9.5920   41.8272    5.8450 C.3     1  UNL1        0.0173
     16 C          11.0081   39.8225    5.8849 C.3     1  UNL1        0.0173
     17 N          15.7060   38.5809   11.7602 N.pl3   1  UNL1       -0.2679
     18 H          15.6897   39.0960   12.5991 H       1  UNL1        0.1565
     19 C          17.0027   38.2639   11.2359 C.ar    1  UNL1        0.2218
     20 C          18.7432   36.7107   10.8280 C.ar    1  UNL1        0.1034
     21 C          19.5014   37.7041   10.2119 C.ar    1  UNL1        0.0414
     22 C          18.9644   38.9872   10.1267 C.ar    1  UNL1        0.1034
     23 N          17.5144   37.0056   11.3264 N.ar    1  UNL1       -0.2120
     24 N          17.7315   39.2430   10.6373 N.ar    1  UNL1       -0.2120
@<TRIPOS>BOND
     1     1     2    1
     2     2     7   ar
     3     3     4   ar
     4     4    17    1
     5     5     6   ar
     6     8     5    1
     7     8     9    1
     8     9    10    1
     9    10    11    1
    10    11    13    1
    11    12    13    1
    12    12     8    1
    13    14    13    1
    14    14    15    1
    15    14    16    1
    16    19    24   ar
    17    20    23   ar
    18    21    22   ar
    19    17    19    1
    20     2     3   ar
    21     4     6   ar
    22     5     7   ar
    23    19    23   ar
    24    20    21   ar
    25    22    24   ar
    26    17    18    1
@<TRIPOS>MOLECULE
MolPort-020-278-612 MCULE-7584097762 PubChem-110255484
 24 26 0 0 0
SMALL
GASTEIGER

@<TRIPOS>ATOM
      1 C          14.3585   44.3051    5.4850 C.3     1  UNL1        0.0522
      2 C          13.9748   43.1126    6.2839 C.ar    1  UNL1        0.0635
      3 C          14.9072   42.5064    7.1229 C.ar    1  UNL1        0.0492
      4 C          14.5177   41.3851    7.8634 C.ar    1  UNL1        0.1368
      5 C          12.3468   41.5217    6.9211 C.ar    1  UNL1        0.1411
      6 N          13.2457   40.9203    7.7441 N.ar    1  UNL1       -0.2158
      7 N          12.7154   42.6133    6.1967 N.ar    1  UNL1       -0.2349
      8 C          10.9605   40.9774    6.8238 C.3     1  UNL1        0.0746
      9 C          10.9849   39.4576    6.7334 C.3     1  UNL1        0.0104
     10 C           9.5640   38.9345    6.5986 C.3     1  UNL1        0.0178
     11 C           8.8888   39.5796    5.3845 C.3     1  UNL1        0.0721
     12 C          10.2347   41.5654    5.6077 C.3     1  UNL1        0.0796
     13 N           8.8594   41.0513    5.4741 N.3     1  UNL1       -0.2736
     14 C           8.0050   41.5061    6.5875 C.3     1  UNL1        0.0576
     15 C           6.7868   40.6066    6.7408 C.3     1  UNL1        0.0173
     16 C           7.5004   42.9216    6.3444 C.3     1  UNL1        0.0173
     17 N          15.4221   40.7084    8.7480 N.pl3   1  UNL1       -0.2679
     18 H          16.3796   40.8988    8.6208 H       1  UNL1        0.1565
     19 C          15.0928   39.7867    9.7963 C.ar    1  UNL1        0.2218
     20 C          13.7433   39.1423   11.6325 C.ar    1  UNL1        0.1034
     21 C          14.4993   37.9835   11.7967 C.ar    1  UNL1        0.0414
     22 C          15.5625   37.7596   10.9241 C.ar    1  UNL1        0.1034
     23 N          14.0510   40.0187   10.6413 N.ar    1  UNL1       -0.2120
     24 N          15.8390   38.6599    9.9449 N.ar    1  UNL1       -0.2120
@<TRIPOS>BOND
     1     1     2    1
     2     2     7   ar
     3     3     4   ar
     4     4    17    1
     5     5     6   ar
     6     8     5    1
     7     8     9    1
     8     9    10    1
     9    10    11    1
    10    11    13    1
    11    12    13    1
    12    12     8    1
    13    14    13    1
    14    14    15    1
    15    14    16    1
    16    19    24   ar
    17    20    23   ar
    18    21    22   ar
    19    17    19    1
    20     2     3   ar
    21     4     6   ar
    22     5     7   ar
    23    19    23   ar
    24    20    21   ar
    25    22    24   ar
    26    17    18    1
