@<TRIPOS>MOLECULE
MolPort-002-319-884 6273700 LN01124744 MCULE-2831407268 ZINC000006273700
 27 27 0 0 0
SMALL
GASTEIGER

@<TRIPOS>ATOM
      1 C          12.4530   40.1983    9.0150 C.2     1  UNL1        0.2954
      2 O          12.6365   41.1686    9.7991 O.2     1  UNL1       -0.2686
      3 N          12.6181   40.3617    7.6006 N.am    1  UNL1       -0.2497
      4 H          12.4692   39.5722    7.0317 H       1  UNL1        0.1579
      5 C          14.0589   43.2605    6.3414 C.ar    1  UNL1        0.2601
      6 C          12.9826   41.5838    6.9517 C.ar    1  UNL1        0.2181
      7 N          12.8697   43.3179    5.7125 N.ar    1  UNL1       -0.1441
      8 N          12.1867   42.2549    6.0988 N.ar    1  UNL1       -0.2459
      9 N          14.1755   42.1788    7.1369 N.ar    1  UNL1       -0.1874
     10 H          11.2769   42.0038    5.8186 H       1  UNL1        0.1918
     11 C          15.1140   44.2644    6.1809 C.2     1  UNL1        0.3794
     12 O          15.0931   45.0430    5.1887 O.2     1  UNL1       -0.2414
     13 O          16.1383   44.3455    7.1288 O.3     1  UNL1       -0.4433
     14 C          17.5109   44.1680    6.7940 C.3     1  UNL1        0.2089
     15 C          18.1766   43.1762    7.7404 C.3     1  UNL1        0.0475
     16 C          17.2445   41.3304    9.1365 C.3     1  UNL1        0.0001
     17 C          17.2614   42.8294    8.9038 C.3     1  UNL1        0.0038
     18 C          12.0261   38.8671    9.5677 C.3     1  UNL1        0.3932
     19 F          11.6408   38.0580    8.5115 F       1  UNL1       -0.1883
     20 F          10.9248   39.0353   10.3915 F       1  UNL1       -0.1883
     21 C          13.1614   38.1606   10.3432 C.3     1  UNL1        0.4114
     22 F          14.3517   38.3884    9.6720 F       1  UNL1       -0.1885
     23 F          13.2715   38.7191   11.6065 F       1  UNL1       -0.1885
     24 C          12.9705   36.6394   10.4871 C.3     1  UNL1        0.4607
     25 F          13.8485   36.1202   11.4217 F       1  UNL1       -0.1648
     26 F          13.2225   36.0312    9.2704 F       1  UNL1       -0.1648
     27 F          11.6736   36.3420   10.8662 F       1  UNL1       -0.1648
@<TRIPOS>BOND
     1    16    17    1
     2    17    15    1
     3    15    14    1
     4    14    13    1
     5    11    13    1
     6    11     5    1
     7     5     9   ar
     8     6     3    1
     9    18     1    1
    10    18    19    1
    11    18    20    1
    12    18    21    1
    13    21    22    1
    14    21    23    1
    15    21    24    1
    16    24    25    1
    17    24    26    1
    18    24    27    1
    19     8     7   ar
    20     8     6   ar
    21     3     1   am
    22    11    12    2
    23     5     7   ar
    24     6     9   ar
    25     1     2    2
    26     8    10    1
    27     3     4    1
@<TRIPOS>MOLECULE
MolPort-002-319-884 6273700 LN01124744 MCULE-2831407268 ZINC000006273700
 27 27 0 0 0
SMALL
GASTEIGER

@<TRIPOS>ATOM
      1 C          11.8942   41.5597    7.4811 C.2     1  UNL1        0.2954
      2 O          12.3772   42.0099    8.5553 O.2     1  UNL1       -0.2686
      3 N          12.4404   41.9506    6.2149 N.am    1  UNL1       -0.2497
      4 H          12.0319   41.5664    5.4058 H       1  UNL1        0.1579
      5 C          15.4280   43.7201    6.1253 C.ar    1  UNL1        0.2601
      6 C          13.5338   42.8562    6.0361 C.ar    1  UNL1        0.2181
      7 N          14.6576   44.5576    5.4054 N.ar    1  UNL1       -0.1441
      8 N          13.4564   44.0103    5.3482 N.ar    1  UNL1       -0.2459
      9 N          14.7585   42.6285    6.5457 N.ar    1  UNL1       -0.1874
     10 H          12.6629   44.3743    4.8930 H       1  UNL1        0.1918
     11 C          16.8415   43.9665    6.4221 C.2     1  UNL1        0.3794
     12 O          17.7180   43.7183    5.5497 O.2     1  UNL1       -0.2414
     13 O          17.2053   44.4705    7.6743 O.3     1  UNL1       -0.4433
     14 C          17.5854   43.6309    8.7597 C.3     1  UNL1        0.2089
     15 C          17.6405   42.1716    8.3238 C.3     1  UNL1        0.0475
     16 C          17.3425   40.2195    9.8487 C.3     1  UNL1        0.0001
     17 C          16.6360   41.3306    9.0952 C.3     1  UNL1        0.0038
     18 C          10.7142   40.6295    7.5295 C.3     1  UNL1        0.3932
     19 F          10.8323   39.8309    8.6551 F       1  UNL1       -0.1883
     20 F          10.7294   39.7982    6.4212 F       1  UNL1       -0.1883
     21 C           9.3694   41.3885    7.6007 C.3     1  UNL1        0.4114
     22 F           8.4948   40.6485    8.3795 F       1  UNL1       -0.1885
     23 F           9.5642   42.6108    8.2236 F       1  UNL1       -0.1885
     24 C           8.7114   41.6287    6.2293 C.3     1  UNL1        0.4607
     25 F           9.6508   42.0332    5.2977 F       1  UNL1       -0.1648
     26 F           7.7608   42.6267    6.3483 F       1  UNL1       -0.1648
     27 F           8.0873   40.4797    5.7773 F       1  UNL1       -0.1648
@<TRIPOS>BOND
     1    16    17    1
     2    17    15    1
     3    15    14    1
     4    14    13    1
     5    11    13    1
     6    11     5    1
     7     5     9   ar
     8     6     3    1
     9    18     1    1
    10    18    19    1
    11    18    20    1
    12    18    21    1
    13    21    22    1
    14    21    23    1
    15    21    24    1
    16    24    25    1
    17    24    26    1
    18    24    27    1
    19     8     7   ar
    20     8     6   ar
    21     3     1   am
    22    11    12    2
    23     5     7   ar
    24     6     9   ar
    25     1     2    2
    26     8    10    1
    27     3     4    1
@<TRIPOS>MOLECULE
MolPort-002-319-884 6273700 LN01124744 MCULE-2831407268 ZINC000006273700
 27 27 0 0 0
SMALL
GASTEIGER

@<TRIPOS>ATOM
      1 C          10.1203   42.9270   10.0369 C.2     1  UNL1        0.2954
      2 O          11.0563   43.7657    9.9347 O.2     1  UNL1       -0.2686
      3 N          10.4009   41.5221   10.0825 N.am    1  UNL1       -0.2497
      4 H           9.6358   40.9087   10.1690 H       1  UNL1        0.1579
      5 C          13.4348   39.8819   10.4948 C.ar    1  UNL1        0.2601
      6 C          11.7072   40.9425   10.0119 C.ar    1  UNL1        0.2181
      7 N          13.6339   40.4024    9.2689 N.ar    1  UNL1       -0.1441
      8 N          12.5387   41.0749    8.9620 N.ar    1  UNL1       -0.2459
      9 N          12.2278   40.1977   11.0047 N.ar    1  UNL1       -0.1874
     10 H          12.3655   41.5734    8.1309 H       1  UNL1        0.1918
     11 C          14.4221   39.0613   11.2008 C.2     1  UNL1        0.3794
     12 O          14.0378   38.1050   11.9280 O.2     1  UNL1       -0.2414
     13 O          15.7829   39.3510   11.0652 O.3     1  UNL1       -0.4433
     14 C          16.4327   39.4146    9.7998 C.3     1  UNL1        0.2089
     15 C          17.2898   40.6702    9.6921 C.3     1  UNL1        0.0475
     16 C          17.7506   42.5410    8.1070 C.3     1  UNL1        0.0001
     17 C          16.6733   41.6741    8.7310 C.3     1  UNL1        0.0038
     18 C           8.6957   43.4052   10.0791 C.3     1  UNL1        0.3932
     19 F           8.6911   44.7327   10.4742 F       1  UNL1       -0.1883
     20 F           7.9886   42.6825   11.0264 F       1  UNL1       -0.1883
     21 C           7.9977   43.2961    8.7041 C.3     1  UNL1        0.4114
     22 F           7.5938   44.5647    8.3213 F       1  UNL1       -0.1885
     23 F           8.9052   42.8363    7.7634 F       1  UNL1       -0.1885
     24 C           6.7649   42.3734    8.6980 C.3     1  UNL1        0.4607
     25 F           7.1038   41.0978    9.1126 F       1  UNL1       -0.1648
     26 F           6.2626   42.2922    7.4116 F       1  UNL1       -0.1648
     27 F           5.7747   42.8730    9.5251 F       1  UNL1       -0.1648
@<TRIPOS>BOND
     1    16    17    1
     2    17    15    1
     3    15    14    1
     4    14    13    1
     5    11    13    1
     6    11     5    1
     7     5     9   ar
     8     6     3    1
     9    18     1    1
    10    18    19    1
    11    18    20    1
    12    18    21    1
    13    21    22    1
    14    21    23    1
    15    21    24    1
    16    24    25    1
    17    24    26    1
    18    24    27    1
    19     8     7   ar
    20     8     6   ar
    21     3     1   am
    22    11    12    2
    23     5     7   ar
    24     6     9   ar
    25     1     2    2
    26     8    10    1
    27     3     4    1
@<TRIPOS>MOLECULE
MolPort-002-319-884 6273700 LN01124744 MCULE-2831407268 ZINC000006273700
 27 27 0 0 0
SMALL
GASTEIGER

@<TRIPOS>ATOM
      1 C          12.8441   40.2119   10.6143 C.2     1  UNL1        0.2954
      2 O          13.1349   41.0599    9.7276 O.2     1  UNL1       -0.2686
      3 N          11.5361   40.1875   11.1999 N.am    1  UNL1       -0.2497
      4 H          11.3571   39.5022   11.8836 H       1  UNL1        0.1579
      5 C           8.9358   42.0415    9.8339 C.ar    1  UNL1        0.2601
      6 C          10.4703   41.0825   10.8673 C.ar    1  UNL1        0.2181
      7 N           9.0269   42.6460   11.0337 N.ar    1  UNL1       -0.1441
      8 N           9.9996   42.0382   11.6897 N.ar    1  UNL1       -0.2459
      9 N           9.8304   41.0448    9.6839 N.ar    1  UNL1       -0.1874
     10 H          10.3167   42.2435   12.5988 H       1  UNL1        0.1918
     11 C           7.9700   42.4244    8.8008 C.2     1  UNL1        0.3794
     12 O           8.3602   42.6115    7.6160 O.2     1  UNL1       -0.2414
     13 O           6.6236   42.5843    9.1411 O.3     1  UNL1       -0.4433
     14 C           5.7091   41.4940    9.1917 C.3     1  UNL1        0.2089
     15 C           5.2835   41.2085   10.6270 C.3     1  UNL1        0.0475
     16 C           3.0426   41.1346    9.5327 C.3     1  UNL1        0.0001
     17 C           3.8884   40.6062   10.6758 C.3     1  UNL1        0.0038
     18 C          13.8899   39.2391   11.0833 C.3     1  UNL1        0.3932
     19 F          13.8548   39.1922   12.4672 F       1  UNL1       -0.1883
     20 F          15.1462   39.6885   10.7099 F       1  UNL1       -0.1883
     21 C          13.6555   37.8133   10.5342 C.3     1  UNL1        0.4114
     22 F          14.6500   36.9879   11.0328 F       1  UNL1       -0.1885
     23 F          12.4377   37.3383   10.9941 F       1  UNL1       -0.1885
     24 C          13.6762   37.7219    8.9971 C.3     1  UNL1        0.4607
     25 F          14.6413   38.5601    8.4680 F       1  UNL1       -0.1648
     26 F          12.4448   38.1103    8.5007 F       1  UNL1       -0.1648
     27 F          13.9254   36.4244    8.5867 F       1  UNL1       -0.1648
@<TRIPOS>BOND
     1    16    17    1
     2    17    15    1
     3    15    14    1
     4    14    13    1
     5    11    13    1
     6    11     5    1
     7     5     9   ar
     8     6     3    1
     9    18     1    1
    10    18    19    1
    11    18    20    1
    12    18    21    1
    13    21    22    1
    14    21    23    1
    15    21    24    1
    16    24    25    1
    17    24    26    1
    18    24    27    1
    19     8     7   ar
    20     8     6   ar
    21     3     1   am
    22    11    12    2
    23     5     7   ar
    24     6     9   ar
    25     1     2    2
    26     8    10    1
    27     3     4    1
@<TRIPOS>MOLECULE
MolPort-002-319-884 6273700 LN01124744 MCULE-2831407268 ZINC000006273700
 27 27 0 0 0
SMALL
GASTEIGER

@<TRIPOS>ATOM
      1 C           9.6744   42.3348    9.7462 C.2     1  UNL1        0.2954
      2 O          10.2016   43.4777    9.8212 O.2     1  UNL1       -0.2686
      3 N          10.0948   41.4016    8.7428 N.am    1  UNL1       -0.2497
      4 H           9.6565   40.5202    8.7300 H       1  UNL1        0.1579
      5 C          12.8165   42.3658    6.8121 C.ar    1  UNL1        0.2601
      6 C          11.1024   41.6523    7.7582 C.ar    1  UNL1        0.2181
      7 N          12.1753   41.5943    5.9140 N.ar    1  UNL1       -0.1441
      8 N          11.0883   41.1412    6.5132 N.ar    1  UNL1       -0.2459
      9 N          12.1737   42.4317    7.9950 N.ar    1  UNL1       -0.1874
     10 H          10.4045   40.5481    6.1262 H       1  UNL1        0.1918
     11 C          14.0765   43.0607    6.5361 C.2     1  UNL1        0.3794
     12 O          14.2952   43.5295    5.3857 O.2     1  UNL1       -0.2414
     13 O          15.0280   43.1923    7.5517 O.3     1  UNL1       -0.4433
     14 C          15.8358   42.1062    7.9935 C.3     1  UNL1        0.2089
     15 C          17.3069   42.5028    8.0288 C.3     1  UNL1        0.0475
     16 C          17.8535   43.8996    6.0351 C.3     1  UNL1        0.0001
     17 C          17.5056   43.9186    7.5116 C.3     1  UNL1        0.0038
     18 C           8.5728   41.9609   10.6984 C.3     1  UNL1        0.3932
     19 F           8.4234   42.9851   11.6188 F       1  UNL1       -0.1883
     20 F           8.9270   40.8175   11.3961 F       1  UNL1       -0.1883
     21 C           7.2223   41.7420    9.9787 C.3     1  UNL1        0.4114
     22 F           6.8992   42.9057    9.3002 F       1  UNL1       -0.1885
     23 F           7.3589   40.7282    9.0441 F       1  UNL1       -0.1885
     24 C           6.0574   41.3934   10.9235 C.3     1  UNL1        0.4607
     25 F           5.4170   42.5402   11.3580 F       1  UNL1       -0.1648
     26 F           6.5520   40.7270   12.0304 F       1  UNL1       -0.1648
     27 F           5.1415   40.5726   10.2901 F       1  UNL1       -0.1648
@<TRIPOS>BOND
     1    16    17    1
     2    17    15    1
     3    15    14    1
     4    14    13    1
     5    11    13    1
     6    11     5    1
     7     5     9   ar
     8     6     3    1
     9    18     1    1
    10    18    19    1
    11    18    20    1
    12    18    21    1
    13    21    22    1
    14    21    23    1
    15    21    24    1
    16    24    25    1
    17    24    26    1
    18    24    27    1
    19     8     7   ar
    20     8     6   ar
    21     3     1   am
    22    11    12    2
    23     5     7   ar
    24     6     9   ar
    25     1     2    2
    26     8    10    1
    27     3     4    1
@<TRIPOS>MOLECULE
MolPort-002-319-884 6273700 LN01124744 MCULE-2831407268 ZINC000006273700
 27 27 0 0 0
SMALL
GASTEIGER

@<TRIPOS>ATOM
      1 C           6.5026   41.5722   10.4032 C.2     1  UNL1        0.2954
      2 O           6.7500   41.1290    9.2489 O.2     1  UNL1       -0.2686
      3 N           7.4934   42.3113   11.1288 N.am    1  UNL1       -0.2497
      4 H           7.2491   42.6411   12.0237 H       1  UNL1        0.1579
      5 C          10.6833   42.4223    9.7588 C.ar    1  UNL1        0.2601
      6 C           8.8101   42.6067   10.6531 C.ar    1  UNL1        0.2181
      7 N          10.6069   43.6799   10.2340 N.ar    1  UNL1       -0.1441
      8 N           9.4193   43.7977   10.8010 N.ar    1  UNL1       -0.2459
      9 N           9.5678   41.7056   10.0010 N.ar    1  UNL1       -0.1874
     10 H           9.0530   44.5972   11.2434 H       1  UNL1        0.1918
     11 C          11.8518   41.8877    9.0549 C.2     1  UNL1        0.3794
     12 O          12.6779   41.1615    9.6724 O.2     1  UNL1       -0.2414
     13 O          12.0422   42.1932    7.7042 O.3     1  UNL1       -0.4433
     14 C          13.3127   42.1026    7.0675 C.3     1  UNL1        0.2089
     15 C          13.9091   43.4874    6.8462 C.3     1  UNL1        0.0475
     16 C          16.2738   44.2414    7.1002 C.3     1  UNL1        0.0001
     17 C          15.3179   43.3940    6.2820 C.3     1  UNL1        0.0038
     18 C           5.1673   41.2945   11.0352 C.3     1  UNL1        0.3932
     19 F           4.7086   42.4631   11.6205 F       1  UNL1       -0.1883
     20 F           5.3133   40.3511   12.0393 F       1  UNL1       -0.1883
     21 C           4.1187   40.8119   10.0070 C.3     1  UNL1        0.4114
     22 F           4.7665   40.5763    8.8055 F       1  UNL1       -0.1885
     23 F           3.5708   39.6142   10.4373 F       1  UNL1       -0.1885
     24 C           2.9799   41.8170    9.7538 C.3     1  UNL1        0.4607
     25 F           2.0429   41.2889    8.8836 F       1  UNL1       -0.1648
     26 F           3.5026   42.9643    9.1842 F       1  UNL1       -0.1648
     27 F           2.3567   42.1607   10.9402 F       1  UNL1       -0.1648
@<TRIPOS>BOND
     1    16    17    1
     2    17    15    1
     3    15    14    1
     4    14    13    1
     5    11    13    1
     6    11     5    1
     7     5     9   ar
     8     6     3    1
     9    18     1    1
    10    18    19    1
    11    18    20    1
    12    18    21    1
    13    21    22    1
    14    21    23    1
    15    21    24    1
    16    24    25    1
    17    24    26    1
    18    24    27    1
    19     8     7   ar
    20     8     6   ar
    21     3     1   am
    22    11    12    2
    23     5     7   ar
    24     6     9   ar
    25     1     2    2
    26     8    10    1
    27     3     4    1
@<TRIPOS>MOLECULE
MolPort-002-319-884 6273700 LN01124744 MCULE-2831407268 ZINC000006273700
 27 27 0 0 0
SMALL
GASTEIGER

@<TRIPOS>ATOM
      1 C           6.3776   41.7580   10.4228 C.2     1  UNL1        0.2954
      2 O           6.4648   41.8479    9.1682 O.2     1  UNL1       -0.2686
      3 N           7.5139   42.0259   11.2544 N.am    1  UNL1       -0.2497
      4 H           7.3926   41.9479   12.2283 H       1  UNL1        0.1579
      5 C          10.6690   42.3419    9.8368 C.ar    1  UNL1        0.2601
      6 C           8.8109   42.3981   10.7784 C.ar    1  UNL1        0.2181
      7 N          10.5662   43.5555   10.4110 N.ar    1  UNL1       -0.1441
      8 N           9.3880   43.5920   11.0080 N.ar    1  UNL1       -0.2459
      9 N           9.5804   41.5744   10.0429 N.ar    1  UNL1       -0.1874
     10 H           9.0081   44.3429   11.5190 H       1  UNL1        0.1918
     11 C          11.8373   41.9002    9.0708 C.2     1  UNL1        0.3794
     12 O          12.4159   42.7043    8.2899 O.2     1  UNL1       -0.2414
     13 O          12.2963   40.5870    9.2095 O.3     1  UNL1       -0.4433
     14 C          12.5203   39.9813   10.4786 C.3     1  UNL1        0.2089
     15 C          14.0074   39.7429   10.7115 C.3     1  UNL1        0.0475
     16 C          15.0938   37.6641   11.5616 C.3     1  UNL1        0.0001
     17 C          14.2374   38.8612   11.9285 C.3     1  UNL1        0.0038
     18 C           5.0780   41.3347   11.0488 C.3     1  UNL1        0.3932
     19 F           4.5017   42.4407   11.6514 F       1  UNL1       -0.1883
     20 F           5.3206   40.3959   12.0384 F       1  UNL1       -0.1883
     21 C           4.0844   40.7627   10.0119 C.3     1  UNL1        0.4114
     22 F           4.7824   40.4919    8.8463 F       1  UNL1       -0.1885
     23 F           3.5646   39.5682   10.4841 F       1  UNL1       -0.1885
     24 C           2.9202   41.7106    9.6695 C.3     1  UNL1        0.4607
     25 F           2.0581   41.1222    8.7615 F       1  UNL1       -0.1648
     26 F           3.4254   42.8666    9.1017 F       1  UNL1       -0.1648
     27 F           2.2158   42.0534   10.8099 F       1  UNL1       -0.1648
@<TRIPOS>BOND
     1    16    17    1
     2    17    15    1
     3    15    14    1
     4    14    13    1
     5    11    13    1
     6    11     5    1
     7     5     9   ar
     8     6     3    1
     9    18     1    1
    10    18    19    1
    11    18    20    1
    12    18    21    1
    13    21    22    1
    14    21    23    1
    15    21    24    1
    16    24    25    1
    17    24    26    1
    18    24    27    1
    19     8     7   ar
    20     8     6   ar
    21     3     1   am
    22    11    12    2
    23     5     7   ar
    24     6     9   ar
    25     1     2    2
    26     8    10    1
    27     3     4    1
@<TRIPOS>MOLECULE
MolPort-002-319-884 6273700 LN01124744 MCULE-2831407268 ZINC000006273700
 27 27 0 0 0
SMALL
GASTEIGER

@<TRIPOS>ATOM
      1 C          12.4675   41.0891    9.6207 C.2     1  UNL1        0.2954
      2 O          12.6176   41.7909    8.5840 O.2     1  UNL1       -0.2686
      3 N          11.3180   41.2626   10.4593 N.am    1  UNL1       -0.2497
      4 H          11.2442   40.6860   11.2538 H       1  UNL1        0.1579
      5 C           8.5744   43.1425    9.4577 C.ar    1  UNL1        0.2601
      6 C          10.2696   42.2091   10.2308 C.ar    1  UNL1        0.2181
      7 N           9.0552   43.9544   10.4183 N.ar    1  UNL1       -0.1441
      8 N          10.1300   43.3631   10.9092 N.ar    1  UNL1       -0.2459
      9 N           9.3114   42.0246    9.3038 N.ar    1  UNL1       -0.1874
     10 H          10.7126   43.6995   11.6280 H       1  UNL1        0.1918
     11 C           7.3798   43.4399    8.6632 C.2     1  UNL1        0.3794
     12 O           7.2966   44.5342    8.0414 O.2     1  UNL1       -0.2414
     13 O           6.3397   42.5076    8.6069 O.3     1  UNL1       -0.4433
     14 C           5.4458   42.2870    9.6931 C.3     1  UNL1        0.2089
     15 C           4.0229   42.6794    9.3135 C.3     1  UNL1        0.0475
     16 C           3.6572   40.4821   10.4373 C.3     1  UNL1        0.0001
     17 C           3.0656   41.5121    9.4936 C.3     1  UNL1        0.0038
     18 C          13.5205   40.0842    9.9964 C.3     1  UNL1        0.3932
     19 F          13.4385   39.8532   11.3597 F       1  UNL1       -0.1883
     20 F          14.7773   40.6046    9.7334 F       1  UNL1       -0.1883
     21 C          13.3412   38.7394    9.2555 C.3     1  UNL1        0.4114
     22 F          12.6570   38.9824    8.0758 F       1  UNL1       -0.1885
     23 F          14.5859   38.2261    8.9277 F       1  UNL1       -0.1885
     24 C          12.5622   37.6804   10.0574 C.3     1  UNL1        0.4607
     25 F          13.2324   37.3557   11.2233 F       1  UNL1       -0.1648
     26 F          12.4367   36.5327    9.2952 F       1  UNL1       -0.1648
     27 F          11.2955   38.1385   10.3728 F       1  UNL1       -0.1648
@<TRIPOS>BOND
     1    16    17    1
     2    17    15    1
     3    15    14    1
     4    14    13    1
     5    11    13    1
     6    11     5    1
     7     5     9   ar
     8     6     3    1
     9    18     1    1
    10    18    19    1
    11    18    20    1
    12    18    21    1
    13    21    22    1
    14    21    23    1
    15    21    24    1
    16    24    25    1
    17    24    26    1
    18    24    27    1
    19     8     7   ar
    20     8     6   ar
    21     3     1   am
    22    11    12    2
    23     5     7   ar
    24     6     9   ar
    25     1     2    2
    26     8    10    1
    27     3     4    1
@<TRIPOS>MOLECULE
MolPort-002-319-884 6273700 LN01124744 MCULE-2831407268 ZINC000006273700
 27 27 0 0 0
SMALL
GASTEIGER

@<TRIPOS>ATOM
      1 C          11.7385   39.7782   10.3837 C.2     1  UNL1        0.2954
      2 O          10.9462   38.8244   10.1542 O.2     1  UNL1       -0.2686
      3 N          11.2719   40.9796   11.0107 N.am    1  UNL1       -0.2497
      4 H          11.9310   41.6925   11.1736 H       1  UNL1        0.1579
      5 C           7.8676   41.5685   11.3692 C.ar    1  UNL1        0.2601
      6 C           9.9220   41.2229   11.4181 C.ar    1  UNL1        0.2181
      7 N           8.2225   41.5471   12.6680 N.ar    1  UNL1       -0.1441
      8 N           9.5250   41.3277   12.6998 N.ar    1  UNL1       -0.2459
      9 N           8.9115   41.3673   10.5409 N.ar    1  UNL1       -0.1874
     10 H          10.0921   41.2554   13.5013 H       1  UNL1        0.1918
     11 C           6.4957   41.7875   10.9038 C.2     1  UNL1        0.3794
     12 O           5.5265   41.5550   11.6769 O.2     1  UNL1       -0.2414
     13 O           6.2745   42.2477    9.6024 O.3     1  UNL1       -0.4433
     14 C           5.8042   41.4020    8.5577 C.3     1  UNL1        0.2089
     15 C           6.9598   40.9149    7.6918 C.3     1  UNL1        0.0475
     16 C           6.9325   42.9939    6.3128 C.3     1  UNL1        0.0001
     17 C           6.8650   41.4787    6.2831 C.3     1  UNL1        0.0038
     18 C          13.1781   39.6649    9.9661 C.3     1  UNL1        0.3932
     19 F          13.6416   40.9302    9.6453 F       1  UNL1       -0.1883
     20 F          13.2735   38.8815    8.8273 F       1  UNL1       -0.1883
     21 C          14.0708   39.0802   11.0844 C.3     1  UNL1        0.4114
     22 F          15.3211   39.6696   10.9936 F       1  UNL1       -0.1885
     23 F          13.5342   39.4081   12.3191 F       1  UNL1       -0.1885
     24 C          14.2494   37.5525   11.0100 C.3     1  UNL1        0.4607
     25 F          13.0245   36.9115   11.0598 F       1  UNL1       -0.1648
     26 F          15.0049   37.1288   12.0887 F       1  UNL1       -0.1648
     27 F          14.9051   37.1919    9.8463 F       1  UNL1       -0.1648
@<TRIPOS>BOND
     1    16    17    1
     2    17    15    1
     3    15    14    1
     4    14    13    1
     5    11    13    1
     6    11     5    1
     7     5     9   ar
     8     6     3    1
     9    18     1    1
    10    18    19    1
    11    18    20    1
    12    18    21    1
    13    21    22    1
    14    21    23    1
    15    21    24    1
    16    24    25    1
    17    24    26    1
    18    24    27    1
    19     8     7   ar
    20     8     6   ar
    21     3     1   am
    22    11    12    2
    23     5     7   ar
    24     6     9   ar
    25     1     2    2
    26     8    10    1
    27     3     4    1
@<TRIPOS>MOLECULE
MolPort-002-319-884 6273700 LN01124744 MCULE-2831407268 ZINC000006273700
 27 27 0 0 0
SMALL
GASTEIGER

@<TRIPOS>ATOM
      1 C           9.9291   42.8132    9.9815 C.2     1  UNL1        0.2954
      2 O          10.8495   43.6745   10.0100 O.2     1  UNL1       -0.2686
      3 N          10.2334   41.4163   10.0840 N.am    1  UNL1       -0.2497
      4 H           9.4788   40.7843   10.0629 H       1  UNL1        0.1579
      5 C          13.5365   40.3717    9.8340 C.ar    1  UNL1        0.2601
      6 C          11.5492   40.8695   10.2148 C.ar    1  UNL1        0.2181
      7 N          13.2237   39.8210   11.0223 N.ar    1  UNL1       -0.1441
      8 N          11.9637   40.1365   11.2646 N.ar    1  UNL1       -0.2459
      9 N          12.5065   41.0459    9.2854 N.ar    1  UNL1       -0.1874
     10 H          11.4338   39.8854   12.0554 H       1  UNL1        0.1918
     11 C          14.8533   40.2519    9.2027 C.2     1  UNL1        0.3794
     12 O          15.4936   39.1685    9.2884 O.2     1  UNL1       -0.2414
     13 O          15.3900   41.3442    8.5150 O.3     1  UNL1       -0.4433
     14 C          14.7863   41.8881    7.3456 C.3     1  UNL1        0.2089
     15 C          15.5103   43.1525    6.8988 C.3     1  UNL1        0.0475
     16 C          15.2843   45.3628    5.7638 C.3     1  UNL1        0.0001
     17 C          14.5924   44.0519    6.0865 C.3     1  UNL1        0.0038
     18 C           8.5030   43.2554    9.8062 C.3     1  UNL1        0.3932
     19 F           8.4332   44.6164   10.0539 F       1  UNL1       -0.1883
     20 F           7.6988   42.6173   10.7367 F       1  UNL1       -0.1883
     21 C           7.9744   42.9848    8.3790 C.3     1  UNL1        0.4114
     22 F           7.3639   44.1393    7.9169 F       1  UNL1       -0.1885
     23 F           9.0405   42.7020    7.5403 F       1  UNL1       -0.1885
     24 C           6.9566   41.8324    8.2952 C.3     1  UNL1        0.4607
     25 F           5.6616   42.3191    8.3003 F       1  UNL1       -0.1648
     26 F           7.1133   41.0049    9.3927 F       1  UNL1       -0.1648
     27 F           7.1571   41.0838    7.1491 F       1  UNL1       -0.1648
@<TRIPOS>BOND
     1    16    17    1
     2    17    15    1
     3    15    14    1
     4    14    13    1
     5    11    13    1
     6    11     5    1
     7     5     9   ar
     8     6     3    1
     9    18     1    1
    10    18    19    1
    11    18    20    1
    12    18    21    1
    13    21    22    1
    14    21    23    1
    15    21    24    1
    16    24    25    1
    17    24    26    1
    18    24    27    1
    19     8     7   ar
    20     8     6   ar
    21     3     1   am
    22    11    12    2
    23     5     7   ar
    24     6     9   ar
    25     1     2    2
    26     8    10    1
    27     3     4    1
