@<TRIPOS>MOLECULE
MolPort-020-296-475 MCULE-6995063905 PubChem-110268417
 35 39 0 0 0
SMALL
GASTEIGER

@<TRIPOS>ATOM
      1 C          12.2099   39.1344    9.3870 C.3     1  UNL1        0.0603
      2 C          12.0389   40.1439   10.5243 C.3     1  UNL1        0.0094
      3 C          12.6642   39.6058   11.8093 C.3     1  UNL1        0.0220
      4 C          14.1420   39.2933   11.5866 C.3     1  UNL1        0.0938
      5 C          13.6886   38.8144    9.1730 C.3     1  UNL1        0.0996
      6 C          14.8099   37.0748   10.6163 C.2     1  UNL1        0.2644
      7 N          14.2878   38.4009   10.4395 N.am    1  UNL1       -0.2745
      8 O          14.7871   36.5454   11.7604 O.2     1  UNL1       -0.2683
      9 C          15.3464   36.2919    9.4869 C.ar    1  UNL1        0.1069
     10 C          14.8372   35.0888    8.9941 C.ar    1  UNL1       -0.0003
     11 C          15.6284   34.7735    7.9179 C.ar    1  UNL1        0.0154
     12 C          16.5586   35.7733    7.8010 C.ar    1  UNL1        0.0565
     13 C          17.5140   35.7660    6.7869 C.ar    1  UNL1        0.0193
     14 C          17.4958   34.6917    5.8789 C.ar    1  UNL1        0.0311
     15 C          16.5337   33.6654    5.9983 C.ar    1  UNL1        0.1402
     16 C          15.5779   33.7008    7.0293 C.ar    1  UNL1        0.0308
     17 C          13.6116   34.3599    9.4327 C.3     1  UNL1        0.0327
     18 N          16.3991   36.7192    8.7450 N.ar    1  UNL1       -0.3498
     19 F          16.5293   32.6413    5.1120 F       1  UNL1       -0.2042
     20 H          16.9289   37.5395    8.8697 H       1  UNL1        0.1661
     21 C          11.5606   41.2164    6.3638 C.ar    1  UNL1        0.2214
     22 C           9.9260   39.5041    6.3931 C.ar    1  UNL1        0.1031
     23 C          10.4687   38.9904    7.5687 C.ar    1  UNL1        0.0356
     24 C          11.5823   39.6303    8.1236 C.ar    1  UNL1        0.0647
     25 N          10.4778   40.6015    5.8140 N.ar    1  UNL1       -0.2120
     26 N          12.1013   40.7266    7.5107 N.ar    1  UNL1       -0.2179
     27 N          12.1441   42.3748    5.7555 N.pl3   1  UNL1       -0.2680
     28 H          11.6060   42.8368    5.0727 H       1  UNL1        0.1565
     29 C          17.2779   44.5506    6.9160 C.3     1  UNL1        0.0327
     30 C          15.9406   43.9751    6.6185 C.ar    1  UNL1       -0.0026
     31 C          15.0398   44.6669    5.8072 C.ar    1  UNL1        0.0960
     32 C          13.4344   42.9265    6.0442 C.ar    1  UNL1        0.1343
     33 C          14.3127   42.2080    6.8604 C.ar    1  UNL1        0.0342
     34 C          15.5720   42.7377    7.1475 C.ar    1  UNL1        0.0001
     35 N          13.8175   44.1334    5.5395 N.ar    1  UNL1       -0.2293
@<TRIPOS>BOND
     1    29    30    1
     2    31    35   ar
     3    32    33   ar
     4    32    27    1
     5    34    30   ar
     6    21    26   ar
     7    22    25   ar
     8    23    24   ar
     9     1    24    1
    10     1     2    1
    11     2     3    1
    12     3     4    1
    13     4     7    1
    14     5     7    1
    15     5     1    1
    16     6     9    1
    17    10    11   ar
    18    12    18   ar
    19    12    13   ar
    20    14    15   ar
    21    15    19    1
    22    16    11   ar
    23    17    10    1
    24    27    21    1
    25     7     6   am
    26    18     9   ar
    27    30    31   ar
    28    32    35   ar
    29    33    34   ar
    30    21    25   ar
    31    22    23   ar
    32    24    26   ar
    33     6     8    2
    34     9    10   ar
    35    11    12   ar
    36    13    14   ar
    37    15    16   ar
    38    27    28    1
    39    18    20    1
@<TRIPOS>MOLECULE
MolPort-020-296-475 MCULE-6995063905 PubChem-110268417
 35 39 0 0 0
SMALL
GASTEIGER

@<TRIPOS>ATOM
      1 C          10.6182   41.3828    9.1673 C.3     1  UNL1        0.0603
      2 C          11.3784   40.4259   10.0884 C.3     1  UNL1        0.0094
      3 C          10.9051   40.5908   11.5309 C.3     1  UNL1        0.0220
      4 C           9.4011   40.3445   11.6243 C.3     1  UNL1        0.0938
      5 C           9.1128   41.1424    9.2705 C.3     1  UNL1        0.0996
      6 C           7.8028   42.2202   11.1384 C.2     1  UNL1        0.2644
      7 N           8.7028   41.2031   10.6712 N.am    1  UNL1       -0.2745
      8 O           7.8914   42.6299   12.3274 O.2     1  UNL1       -0.2683
      9 C           6.7909   42.8303   10.2551 C.ar    1  UNL1        0.1069
     10 C           5.4105   42.6279   10.3097 C.ar    1  UNL1       -0.0003
     11 C           4.8859   43.4390    9.3346 C.ar    1  UNL1        0.0154
     12 C           5.9404   44.0871    8.7459 C.ar    1  UNL1        0.0565
     13 C           5.7489   45.0068    7.7170 C.ar    1  UNL1        0.0193
     14 C           4.4293   45.2522    7.2962 C.ar    1  UNL1        0.0311
     15 C           3.3442   44.5871    7.9073 C.ar    1  UNL1        0.1402
     16 C           3.5665   43.6667    8.9471 C.ar    1  UNL1        0.0308
     17 C           4.6368   41.8230   11.2992 C.3     1  UNL1        0.0327
     18 N           7.1160   43.7375    9.2999 N.ar    1  UNL1       -0.3498
     19 F           2.0802   44.8393    7.4913 F       1  UNL1       -0.2042
     20 H           8.0133   44.0671    9.0643 H       1  UNL1        0.1661
     21 C          12.4313   42.0783    5.9853 C.ar    1  UNL1        0.2214
     22 C          11.0706   40.1778    5.6092 C.ar    1  UNL1        0.1031
     23 C          10.6028   40.2392    6.9198 C.ar    1  UNL1        0.0356
     24 C          11.0836   41.2561    7.7519 C.ar    1  UNL1        0.0647
     25 N          11.9715   41.0926    5.1669 N.ar    1  UNL1       -0.2120
     26 N          11.9841   42.1510    7.2668 N.ar    1  UNL1       -0.2179
     27 N          13.3809   43.0453    5.5209 N.pl3   1  UNL1       -0.2680
     28 H          13.1242   43.5774    4.7334 H       1  UNL1        0.1565
     29 C          18.4930   44.0947    7.8018 C.3     1  UNL1        0.0327
     30 C          17.1580   43.8135    7.2129 C.ar    1  UNL1       -0.0026
     31 C          16.6768   44.5869    6.1553 C.ar    1  UNL1        0.0960
     32 C          14.6676   43.3133    6.0909 C.ar    1  UNL1        0.1343
     33 C          15.1198   42.5200    7.1493 C.ar    1  UNL1        0.0342
     34 C          16.3722   42.7739    7.7115 C.ar    1  UNL1        0.0001
     35 N          15.4537   44.3232    5.6215 N.ar    1  UNL1       -0.2293
@<TRIPOS>BOND
     1    29    30    1
     2    31    35   ar
     3    32    33   ar
     4    32    27    1
     5    34    30   ar
     6    21    26   ar
     7    22    25   ar
     8    23    24   ar
     9     1    24    1
    10     1     2    1
    11     2     3    1
    12     3     4    1
    13     4     7    1
    14     5     7    1
    15     5     1    1
    16     6     9    1
    17    10    11   ar
    18    12    18   ar
    19    12    13   ar
    20    14    15   ar
    21    15    19    1
    22    16    11   ar
    23    17    10    1
    24    27    21    1
    25     7     6   am
    26    18     9   ar
    27    30    31   ar
    28    32    35   ar
    29    33    34   ar
    30    21    25   ar
    31    22    23   ar
    32    24    26   ar
    33     6     8    2
    34     9    10   ar
    35    11    12   ar
    36    13    14   ar
    37    15    16   ar
    38    27    28    1
    39    18    20    1
@<TRIPOS>MOLECULE
MolPort-020-296-475 MCULE-6995063905 PubChem-110268417
 35 39 0 0 0
SMALL
GASTEIGER

@<TRIPOS>ATOM
      1 C          10.7982   38.6077    8.3921 C.3     1  UNL1        0.0603
      2 C           9.4924   38.0202    7.8521 C.3     1  UNL1        0.0094
      3 C           8.6795   39.0997    7.1409 C.3     1  UNL1        0.0220
      4 C           9.4982   39.7179    6.0101 C.3     1  UNL1        0.0938
      5 C          11.6109   39.2358    7.2609 C.3     1  UNL1        0.0996
      6 C          11.0957   41.5898    6.5129 C.2     1  UNL1        0.2644
      7 N          10.7785   40.1893    6.5317 N.am    1  UNL1       -0.2745
      8 O          10.1666   42.4361    6.4117 O.2     1  UNL1       -0.2683
      9 C          12.4824   42.0762    6.6428 C.ar    1  UNL1        0.1069
     10 C          13.3549   41.8245    7.7035 C.ar    1  UNL1       -0.0003
     11 C          14.5345   42.4338    7.3555 C.ar    1  UNL1        0.0154
     12 C          14.3373   43.0117    6.1284 C.ar    1  UNL1        0.0565
     13 C          15.3553   43.7041    5.4761 C.ar    1  UNL1        0.0193
     14 C          16.6025   43.7937    6.1205 C.ar    1  UNL1        0.0311
     15 C          16.8047   43.1936    7.3823 C.ar    1  UNL1        0.1402
     16 C          15.7604   42.4967    8.0158 C.ar    1  UNL1        0.0308
     17 C          13.1260   40.9610    8.8983 C.3     1  UNL1        0.0327
     18 N          13.0911   42.7973    5.6678 N.ar    1  UNL1       -0.3498
     19 F          18.0138   43.2870    7.9855 F       1  UNL1       -0.2042
     20 H          12.7062   43.0973    4.8127 H       1  UNL1        0.1661
     21 C          13.6328   36.3757    9.3296 C.ar    1  UNL1        0.2214
     22 C          11.8576   35.9106   10.8252 C.ar    1  UNL1        0.1031
     23 C          11.0626   36.8663   10.1967 C.ar    1  UNL1        0.0356
     24 C          11.5997   37.5728    9.1150 C.ar    1  UNL1        0.0647
     25 N          13.1214   35.6830   10.3838 N.ar    1  UNL1       -0.2120
     26 N          12.8691   37.3115    8.7063 N.ar    1  UNL1       -0.2179
     27 N          14.9655   36.1368    8.8613 N.pl3   1  UNL1       -0.2680
     28 H          15.0803   35.4234    8.1926 H       1  UNL1        0.1565
     29 C          19.6517   38.9274   10.5011 C.3     1  UNL1        0.0327
     30 C          18.4236   38.2058   10.0779 C.ar    1  UNL1       -0.0026
     31 C          18.5176   37.0444    9.3095 C.ar    1  UNL1        0.0960
     32 C          16.1475   36.8349    9.2713 C.ar    1  UNL1        0.1343
     33 C          16.0183   37.9951   10.0402 C.ar    1  UNL1        0.0342
     34 C          17.1643   38.6823   10.4441 C.ar    1  UNL1        0.0001
     35 N          17.3886   36.3895    8.9261 N.ar    1  UNL1       -0.2293
@<TRIPOS>BOND
     1    29    30    1
     2    31    35   ar
     3    32    33   ar
     4    32    27    1
     5    34    30   ar
     6    21    26   ar
     7    22    25   ar
     8    23    24   ar
     9     1    24    1
    10     1     2    1
    11     2     3    1
    12     3     4    1
    13     4     7    1
    14     5     7    1
    15     5     1    1
    16     6     9    1
    17    10    11   ar
    18    12    18   ar
    19    12    13   ar
    20    14    15   ar
    21    15    19    1
    22    16    11   ar
    23    17    10    1
    24    27    21    1
    25     7     6   am
    26    18     9   ar
    27    30    31   ar
    28    32    35   ar
    29    33    34   ar
    30    21    25   ar
    31    22    23   ar
    32    24    26   ar
    33     6     8    2
    34     9    10   ar
    35    11    12   ar
    36    13    14   ar
    37    15    16   ar
    38    27    28    1
    39    18    20    1
@<TRIPOS>MOLECULE
MolPort-020-296-475 MCULE-6995063905 PubChem-110268417
 35 39 0 0 0
SMALL
GASTEIGER

@<TRIPOS>ATOM
      1 C          11.6518   38.6307    8.9304 C.3     1  UNL1        0.0603
      2 C          10.3816   37.8465    8.5935 C.3     1  UNL1        0.0094
      3 C           9.3767   38.7469    7.8786 C.3     1  UNL1        0.0220
      4 C           9.9987   39.3310    6.6124 C.3     1  UNL1        0.0938
      5 C          12.2667   39.2238    7.6636 C.3     1  UNL1        0.0996
      6 C          11.3956   41.4132    6.7614 C.2     1  UNL1        0.2644
      7 N          11.2562   39.9956    6.9446 N.am    1  UNL1       -0.2745
      8 O          10.3642   42.1342    6.6844 O.2     1  UNL1       -0.2683
      9 C          12.7181   42.0634    6.6929 C.ar    1  UNL1        0.1069
     10 C          13.7263   41.9986    7.6566 C.ar    1  UNL1       -0.0003
     11 C          14.7768   42.7086    7.1311 C.ar    1  UNL1        0.0154
     12 C          14.3763   43.1603    5.9006 C.ar    1  UNL1        0.0565
     13 C          15.2236   43.9099    5.0874 C.ar    1  UNL1        0.0193
     14 C          16.5138   44.1925    5.5716 C.ar    1  UNL1        0.0311
     15 C          16.9258   43.7222    6.8373 C.ar    1  UNL1        0.1402
     16 C          16.0510   42.9636    7.6354 C.ar    1  UNL1        0.0308
     17 C          13.7380   41.2130    8.9247 C.3     1  UNL1        0.0327
     18 N          13.1226   42.7689    5.6067 N.ar    1  UNL1       -0.3498
     19 F          18.1734   44.0009    7.2849 F       1  UNL1       -0.2042
     20 H          12.6120   42.9537    4.7855 H       1  UNL1        0.1661
     21 C          13.9959   35.8307    9.6800 C.ar    1  UNL1        0.2214
     22 C          14.0118   37.2726   11.5577 C.ar    1  UNL1        0.1031
     23 C          13.0942   38.1144   10.9334 C.ar    1  UNL1        0.0356
     24 C          12.6412   37.7742    9.6540 C.ar    1  UNL1        0.0647
     25 N          14.4446   36.1520   10.9243 N.ar    1  UNL1       -0.2120
     26 N          13.1004   36.6425    9.0581 N.ar    1  UNL1       -0.2179
     27 N          14.4500   34.6486    9.0100 N.pl3   1  UNL1       -0.2680
     28 H          13.8298   33.8843    8.9881 H       1  UNL1        0.1565
     29 C          19.4881   33.9564    6.4459 C.3     1  UNL1        0.0327
     30 C          18.1715   34.1443    7.1088 C.ar    1  UNL1       -0.0026
     31 C          17.8035   33.3378    8.1870 C.ar    1  UNL1        0.0960
     32 C          15.7186   34.4705    8.3686 C.ar    1  UNL1        0.1343
     33 C          16.0563   35.2947    7.2914 C.ar    1  UNL1        0.0342
     34 C          17.2901   35.1284    6.6599 C.ar    1  UNL1        0.0001
     35 N          16.5966   33.5161    8.7885 N.ar    1  UNL1       -0.2293
@<TRIPOS>BOND
     1    29    30    1
     2    31    35   ar
     3    32    33   ar
     4    32    27    1
     5    34    30   ar
     6    21    26   ar
     7    22    25   ar
     8    23    24   ar
     9     1    24    1
    10     1     2    1
    11     2     3    1
    12     3     4    1
    13     4     7    1
    14     5     7    1
    15     5     1    1
    16     6     9    1
    17    10    11   ar
    18    12    18   ar
    19    12    13   ar
    20    14    15   ar
    21    15    19    1
    22    16    11   ar
    23    17    10    1
    24    27    21    1
    25     7     6   am
    26    18     9   ar
    27    30    31   ar
    28    32    35   ar
    29    33    34   ar
    30    21    25   ar
    31    22    23   ar
    32    24    26   ar
    33     6     8    2
    34     9    10   ar
    35    11    12   ar
    36    13    14   ar
    37    15    16   ar
    38    27    28    1
    39    18    20    1
@<TRIPOS>MOLECULE
MolPort-020-296-475 MCULE-6995063905 PubChem-110268417
 35 39 0 0 0
SMALL
GASTEIGER

@<TRIPOS>ATOM
      1 C          10.6743   41.7756    9.8025 C.3     1  UNL1        0.0603
      2 C          11.3541   40.7558   10.7189 C.3     1  UNL1        0.0094
      3 C          10.6241   40.6767   12.0578 C.3     1  UNL1        0.0220
      4 C           9.1585   40.3087   11.8389 C.3     1  UNL1        0.0938
      5 C           9.2051   41.4120    9.5937 C.3     1  UNL1        0.0996
      6 C           7.4912   42.1109   11.3086 C.2     1  UNL1        0.2644
      7 N           8.5545   41.2408   10.8904 N.am    1  UNL1       -0.2745
      8 O           7.3314   42.3515   12.5358 O.2     1  UNL1       -0.2683
      9 C           6.5924   42.7645   10.3383 C.ar    1  UNL1        0.1069
     10 C           5.2000   42.6676   10.3000 C.ar    1  UNL1       -0.0003
     11 C           4.8078   43.4820    9.2673 C.ar    1  UNL1        0.0154
     12 C           5.9470   44.0293    8.7370 C.ar    1  UNL1        0.0565
     13 C           5.8981   44.9255    7.6713 C.ar    1  UNL1        0.0193
     14 C           4.6333   45.2541    7.1506 C.ar    1  UNL1        0.0311
     15 C           3.4608   44.6928    7.7014 C.ar    1  UNL1        0.1402
     16 C           3.5396   43.7941    8.7803 C.ar    1  UNL1        0.0308
     17 C           4.3005   41.9565   11.2544 C.3     1  UNL1        0.0327
     18 N           7.0513   43.6121    9.3833 N.ar    1  UNL1       -0.3498
     19 F           2.2516   45.0244    7.1894 F       1  UNL1       -0.2042
     20 H           7.9853   43.8657    9.2030 H       1  UNL1        0.1661
     21 C          13.4358   42.0756    7.3165 C.ar    1  UNL1        0.2214
     22 C          11.4058   42.0321    6.0991 C.ar    1  UNL1        0.1031
     23 C          10.6837   41.9205    7.2850 C.ar    1  UNL1        0.0356
     24 C          11.3882   41.8880    8.4934 C.ar    1  UNL1        0.0647
     25 N          12.7612   42.1071    6.1346 N.ar    1  UNL1       -0.2120
     26 N          12.7448   41.9669    8.4820 N.ar    1  UNL1       -0.2179
     27 N          14.8656   42.1556    7.3569 N.pl3   1  UNL1       -0.2680
     28 H          15.2946   42.7684    6.7168 H       1  UNL1        0.1565
     29 C          18.2924   39.2631   10.8679 C.3     1  UNL1        0.0327
     30 C          17.3907   40.0126    9.9550 C.ar    1  UNL1       -0.0026
     31 C          17.9007   41.0104    9.1228 C.ar    1  UNL1        0.0960
     32 C          15.7320   41.4309    8.2381 C.ar    1  UNL1        0.1343
     33 C          15.1892   40.4379    9.0586 C.ar    1  UNL1        0.0342
     34 C          16.0255   39.7265    9.9209 C.ar    1  UNL1        0.0001
     35 N          17.0688   41.6920    8.2898 N.ar    1  UNL1       -0.2293
@<TRIPOS>BOND
     1    29    30    1
     2    31    35   ar
     3    32    33   ar
     4    32    27    1
     5    34    30   ar
     6    21    26   ar
     7    22    25   ar
     8    23    24   ar
     9     1    24    1
    10     1     2    1
    11     2     3    1
    12     3     4    1
    13     4     7    1
    14     5     7    1
    15     5     1    1
    16     6     9    1
    17    10    11   ar
    18    12    18   ar
    19    12    13   ar
    20    14    15   ar
    21    15    19    1
    22    16    11   ar
    23    17    10    1
    24    27    21    1
    25     7     6   am
    26    18     9   ar
    27    30    31   ar
    28    32    35   ar
    29    33    34   ar
    30    21    25   ar
    31    22    23   ar
    32    24    26   ar
    33     6     8    2
    34     9    10   ar
    35    11    12   ar
    36    13    14   ar
    37    15    16   ar
    38    27    28    1
    39    18    20    1
@<TRIPOS>MOLECULE
MolPort-020-296-475 MCULE-6995063905 PubChem-110268417
 35 39 0 0 0
SMALL
GASTEIGER

@<TRIPOS>ATOM
      1 C           9.1388   41.4524    8.7421 C.3     1  UNL1        0.0603
      2 C           7.9202   40.6482    8.2838 C.3     1  UNL1        0.0094
      3 C           7.7164   40.8060    6.7787 C.3     1  UNL1        0.0220
      4 C           8.9681   40.3593    6.0269 C.3     1  UNL1        0.0938
      5 C          10.3882   41.0119    7.9809 C.3     1  UNL1        0.0996
      6 C          10.8623   41.9757    5.6977 C.2     1  UNL1        0.2644
      7 N          10.1325   41.0736    6.5440 N.am    1  UNL1       -0.2745
      8 O          10.3103   42.4426    4.6648 O.2     1  UNL1       -0.2683
      9 C          12.2373   42.4038    6.0179 C.ar    1  UNL1        0.1069
     10 C          13.1422   41.7387    6.8476 C.ar    1  UNL1       -0.0003
     11 C          14.2950   42.4817    6.7965 C.ar    1  UNL1        0.0154
     12 C          14.0516   43.5374    5.9570 C.ar    1  UNL1        0.0565
     13 C          15.0331   44.4842    5.6719 C.ar    1  UNL1        0.0193
     14 C          16.2926   44.3234    6.2775 C.ar    1  UNL1        0.0311
     15 C          16.5426   43.2326    7.1382 C.ar    1  UNL1        0.1402
     16 C          15.5344   42.2891    7.4046 C.ar    1  UNL1        0.0308
     17 C          12.9673   40.4263    7.5349 C.3     1  UNL1        0.0327
     18 N          12.8011   43.5049    5.4605 N.ar    1  UNL1       -0.3498
     19 F          17.7629   43.0920    7.7089 F       1  UNL1       -0.2042
     20 H          12.3871   44.1395    4.8320 H       1  UNL1        0.1661
     21 C          10.7468   40.7077   12.0218 C.ar    1  UNL1        0.2214
     22 C           8.5910   41.5701   12.4842 C.ar    1  UNL1        0.1031
     23 C           8.3426   41.7112   11.1208 C.ar    1  UNL1        0.0356
     24 C           9.3428   41.3325   10.2186 C.ar    1  UNL1        0.0647
     25 N           9.7816   41.0739   12.9089 N.ar    1  UNL1       -0.2120
     26 N          10.5189   40.8397   10.6882 N.ar    1  UNL1       -0.2179
     27 N          12.0033   40.1830   12.4671 N.pl3   1  UNL1       -0.2680
     28 H          12.3042   40.4526   13.3649 H       1  UNL1        0.1565
     29 C          15.4438   36.6950    9.5631 C.3     1  UNL1        0.0327
     30 C          14.5535   37.6073   10.3268 C.ar    1  UNL1       -0.0026
     31 C          13.2156   37.7583    9.9587 C.ar    1  UNL1        0.0960
     32 C          12.8645   39.3041   11.7334 C.ar    1  UNL1        0.1343
     33 C          14.1992   39.1759   12.1281 C.ar    1  UNL1        0.0342
     34 C          15.0461   38.3222   11.4191 C.ar    1  UNL1        0.0001
     35 N          12.4069   38.5953   10.6628 N.ar    1  UNL1       -0.2293
@<TRIPOS>BOND
     1    29    30    1
     2    31    35   ar
     3    32    33   ar
     4    32    27    1
     5    34    30   ar
     6    21    26   ar
     7    22    25   ar
     8    23    24   ar
     9     1    24    1
    10     1     2    1
    11     2     3    1
    12     3     4    1
    13     4     7    1
    14     5     7    1
    15     5     1    1
    16     6     9    1
    17    10    11   ar
    18    12    18   ar
    19    12    13   ar
    20    14    15   ar
    21    15    19    1
    22    16    11   ar
    23    17    10    1
    24    27    21    1
    25     7     6   am
    26    18     9   ar
    27    30    31   ar
    28    32    35   ar
    29    33    34   ar
    30    21    25   ar
    31    22    23   ar
    32    24    26   ar
    33     6     8    2
    34     9    10   ar
    35    11    12   ar
    36    13    14   ar
    37    15    16   ar
    38    27    28    1
    39    18    20    1
@<TRIPOS>MOLECULE
MolPort-020-296-475 MCULE-6995063905 PubChem-110268417
 35 39 0 0 0
SMALL
GASTEIGER

@<TRIPOS>ATOM
      1 C           9.4776   40.9437    8.2760 C.3     1  UNL1        0.0603
      2 C           8.5274   39.8585    7.7646 C.3     1  UNL1        0.0094
      3 C           8.7336   39.6358    6.2680 C.3     1  UNL1        0.0220
      4 C          10.1850   39.2549    5.9860 C.3     1  UNL1        0.0938
      5 C          10.9288   40.5661    7.9830 C.3     1  UNL1        0.0996
      6 C          11.9116   41.0585    5.7118 C.2     1  UNL1        0.2644
      7 N          11.0768   40.2577    6.5628 N.am    1  UNL1       -0.2745
      8 O          11.6210   41.1782    4.4907 O.2     1  UNL1       -0.2683
      9 C          13.0896   41.7790    6.2309 C.ar    1  UNL1        0.1069
     10 C          13.9043   41.3821    7.2931 C.ar    1  UNL1       -0.0003
     11 C          14.8904   42.3336    7.3694 C.ar    1  UNL1        0.0154
     12 C          14.6439   43.2433    6.3743 C.ar    1  UNL1        0.0565
     13 C          15.4780   44.3394    6.1649 C.ar    1  UNL1        0.0193
     14 C          16.5904   44.4864    7.0133 C.ar    1  UNL1        0.0311
     15 C          16.8451   43.5456    8.0346 C.ar    1  UNL1        0.1402
     16 C          15.9886   42.4457    8.2204 C.ar    1  UNL1        0.0308
     17 C          13.8265   40.1250    8.0927 C.3     1  UNL1        0.0327
     18 N          13.5518   42.9187    5.6578 N.ar    1  UNL1       -0.3498
     19 F          17.9235   43.7015    8.8391 F       1  UNL1       -0.2042
     20 H          13.1723   43.4015    4.8883 H       1  UNL1        0.1661
     21 C           7.7979   41.7223   11.5115 C.ar    1  UNL1        0.2214
     22 C          10.0962   41.4023   11.9805 C.ar    1  UNL1        0.1031
     23 C          10.3480   41.1523   10.6335 C.ar    1  UNL1        0.0356
     24 C           9.2756   41.1963    9.7359 C.ar    1  UNL1        0.0647
     25 N           8.8332   41.6812   12.3942 N.ar    1  UNL1       -0.2120
     26 N           8.0281   41.4805   10.1939 N.ar    1  UNL1       -0.2179
     27 N           6.4647   42.0173   11.9451 N.pl3   1  UNL1       -0.2680
     28 H           6.3661   42.4120   12.8416 H       1  UNL1        0.1565
     29 C           1.6783   41.1082    8.9953 C.3     1  UNL1        0.0327
     30 C           2.9265   41.3364    9.7687 C.ar    1  UNL1       -0.0026
     31 C           3.5955   42.5584    9.6830 C.ar    1  UNL1        0.0960
     32 C           5.2609   41.7938   11.2011 C.ar    1  UNL1        0.1343
     33 C           4.6155   40.5587   11.3092 C.ar    1  UNL1        0.0342
     34 C           3.4422   40.3315   10.5878 C.ar    1  UNL1        0.0001
     35 N           4.7375   42.7597   10.3941 N.ar    1  UNL1       -0.2293
@<TRIPOS>BOND
     1    29    30    1
     2    31    35   ar
     3    32    33   ar
     4    32    27    1
     5    34    30   ar
     6    21    26   ar
     7    22    25   ar
     8    23    24   ar
     9     1    24    1
    10     1     2    1
    11     2     3    1
    12     3     4    1
    13     4     7    1
    14     5     7    1
    15     5     1    1
    16     6     9    1
    17    10    11   ar
    18    12    18   ar
    19    12    13   ar
    20    14    15   ar
    21    15    19    1
    22    16    11   ar
    23    17    10    1
    24    27    21    1
    25     7     6   am
    26    18     9   ar
    27    30    31   ar
    28    32    35   ar
    29    33    34   ar
    30    21    25   ar
    31    22    23   ar
    32    24    26   ar
    33     6     8    2
    34     9    10   ar
    35    11    12   ar
    36    13    14   ar
    37    15    16   ar
    38    27    28    1
    39    18    20    1
@<TRIPOS>MOLECULE
MolPort-020-296-475 MCULE-6995063905 PubChem-110268417
 35 39 0 0 0
SMALL
GASTEIGER

@<TRIPOS>ATOM
      1 C          11.1062   40.3512    9.4203 C.3     1  UNL1        0.0603
      2 C          10.5258   39.1717   10.2038 C.3     1  UNL1        0.0094
      3 C          11.4583   37.9657   10.1143 C.3     1  UNL1        0.0220
      4 C          12.8444   38.3300   10.6408 C.3     1  UNL1        0.0938
      5 C          12.4978   40.7071    9.9411 C.3     1  UNL1        0.0996
      6 C          14.5062   39.4262    9.1092 C.2     1  UNL1        0.2644
      7 N          13.3397   39.5133    9.9423 N.am    1  UNL1       -0.2745
      8 O          14.8777   38.3021    8.6756 O.2     1  UNL1       -0.2683
      9 C          15.2719   40.6235    8.7134 C.ar    1  UNL1        0.1069
     10 C          16.5544   40.9689    9.1438 C.ar    1  UNL1       -0.0003
     11 C          16.8639   42.1246    8.4713 C.ar    1  UNL1        0.0154
     12 C          15.7873   42.4241    7.6777 C.ar    1  UNL1        0.0565
     13 C          15.7836   43.5404    6.8440 C.ar    1  UNL1        0.0193
     14 C          16.9278   44.3587    6.8416 C.ar    1  UNL1        0.0311
     15 C          18.0375   44.0458    7.6563 C.ar    1  UNL1        0.1402
     16 C          18.0156   42.9097    8.4849 C.ar    1  UNL1        0.0308
     17 C          17.4689   40.1905   10.0289 C.3     1  UNL1        0.0327
     18 N          14.8043   41.5133    7.8020 N.ar    1  UNL1       -0.3498
     19 F          19.1320   44.8433    7.6374 F       1  UNL1       -0.2042
     20 H          13.9378   41.4964    7.3350 H       1  UNL1        0.1661
     21 C           8.0486   42.4566    9.0812 C.ar    1  UNL1        0.2214
     22 C           9.7549   43.8444    9.9570 C.ar    1  UNL1        0.1031
     23 C          10.6493   42.7767    9.9373 C.ar    1  UNL1        0.0356
     24 C          10.1964   41.5368    9.4735 C.ar    1  UNL1        0.0647
     25 N           8.4776   43.6674    9.5315 N.ar    1  UNL1       -0.2120
     26 N           8.9098   41.4053    9.0561 N.ar    1  UNL1       -0.2179
     27 N           6.7019   42.2673    8.6307 N.pl3   1  UNL1       -0.2680
     28 H           6.5693   42.1542    7.6617 H       1  UNL1        0.1565
     29 C           2.0512   42.0927   11.9136 C.3     1  UNL1        0.0327
     30 C           3.2695   42.1330   11.0636 C.ar    1  UNL1       -0.0026
     31 C           3.2571   42.8142    9.8454 C.ar    1  UNL1        0.0960
     32 C           5.5294   42.2266    9.4528 C.ar    1  UNL1        0.1343
     33 C           5.5753   41.5356   10.6670 C.ar    1  UNL1        0.0342
     34 C           4.4376   41.4901   11.4747 C.ar    1  UNL1        0.0001
     35 N           4.3763   42.8465    9.0730 N.ar    1  UNL1       -0.2293
@<TRIPOS>BOND
     1    29    30    1
     2    31    35   ar
     3    32    33   ar
     4    32    27    1
     5    34    30   ar
     6    21    26   ar
     7    22    25   ar
     8    23    24   ar
     9     1    24    1
    10     1     2    1
    11     2     3    1
    12     3     4    1
    13     4     7    1
    14     5     7    1
    15     5     1    1
    16     6     9    1
    17    10    11   ar
    18    12    18   ar
    19    12    13   ar
    20    14    15   ar
    21    15    19    1
    22    16    11   ar
    23    17    10    1
    24    27    21    1
    25     7     6   am
    26    18     9   ar
    27    30    31   ar
    28    32    35   ar
    29    33    34   ar
    30    21    25   ar
    31    22    23   ar
    32    24    26   ar
    33     6     8    2
    34     9    10   ar
    35    11    12   ar
    36    13    14   ar
    37    15    16   ar
    38    27    28    1
    39    18    20    1
@<TRIPOS>MOLECULE
MolPort-020-296-475 MCULE-6995063905 PubChem-110268417
 35 39 0 0 0
SMALL
GASTEIGER

@<TRIPOS>ATOM
      1 C          11.1462   38.6577    8.5578 C.3     1  UNL1        0.0603
      2 C          10.9374   37.6130    9.6564 C.3     1  UNL1        0.0094
      3 C          12.2838   37.1116   10.1739 C.3     1  UNL1        0.0220
      4 C          13.1171   38.2799   10.6954 C.3     1  UNL1        0.0938
      5 C          11.9897   39.8206    9.0781 C.3     1  UNL1        0.0996
      6 C          14.5055   39.6277    9.0938 C.2     1  UNL1        0.2644
      7 N          13.2261   39.3055    9.6612 N.am    1  UNL1       -0.2745
      8 O          15.4538   38.8026    9.1909 O.2     1  UNL1       -0.2683
      9 C          14.7393   40.8893    8.3657 C.ar    1  UNL1        0.1069
     10 C          15.8881   41.6807    8.4231 C.ar    1  UNL1       -0.0003
     11 C          15.6633   42.7110    7.5447 C.ar    1  UNL1        0.0154
     12 C          14.4220   42.5069    7.0008 C.ar    1  UNL1        0.0565
     13 C          13.8912   43.3743    6.0483 C.ar    1  UNL1        0.0193
     14 C          14.6742   44.4762    5.6587 C.ar    1  UNL1        0.0311
     15 C          15.9545   44.6818    6.2168 C.ar    1  UNL1        0.1402
     16 C          16.4673   43.7874    7.1732 C.ar    1  UNL1        0.0308
     17 C          17.1569   41.4090    9.1594 C.3     1  UNL1        0.0327
     18 N          13.8414   41.3919    7.4812 N.ar    1  UNL1       -0.3498
     19 F          16.6955   45.7462    5.8262 F       1  UNL1       -0.2042
     20 H          12.9602   41.0226    7.2436 H       1  UNL1        0.1661
     21 C           8.0855   40.7355    8.0988 C.ar    1  UNL1        0.2214
     22 C           7.9701   38.9704    6.5253 C.ar    1  UNL1        0.1031
     23 C           9.1878   38.4699    6.9803 C.ar    1  UNL1        0.0356
     24 C           9.8394   39.1449    8.0183 C.ar    1  UNL1        0.0647
     25 N           7.4429   40.0879    7.0886 N.ar    1  UNL1       -0.2120
     26 N           9.2746   40.2591    8.5534 N.ar    1  UNL1       -0.2179
     27 N           7.5310   41.9140    8.6955 N.pl3   1  UNL1       -0.2680
     28 H           8.0501   42.7454    8.6027 H       1  UNL1        0.1565
     29 C           2.6251   42.2463   11.5692 C.3     1  UNL1        0.0327
     30 C           3.9091   42.1548   10.8269 C.ar    1  UNL1       -0.0026
     31 C           4.0304   42.7187    9.5559 C.ar    1  UNL1        0.0960
     32 C           6.2947   42.0006    9.4142 C.ar    1  UNL1        0.1343
     33 C           6.2066   41.4251   10.6850 C.ar    1  UNL1        0.0342
     34 C           5.0059   41.5040   11.3929 C.ar    1  UNL1        0.0001
     35 N           5.2092   42.6308    8.8827 N.ar    1  UNL1       -0.2293
@<TRIPOS>BOND
     1    29    30    1
     2    31    35   ar
     3    32    33   ar
     4    32    27    1
     5    34    30   ar
     6    21    26   ar
     7    22    25   ar
     8    23    24   ar
     9     1    24    1
    10     1     2    1
    11     2     3    1
    12     3     4    1
    13     4     7    1
    14     5     7    1
    15     5     1    1
    16     6     9    1
    17    10    11   ar
    18    12    18   ar
    19    12    13   ar
    20    14    15   ar
    21    15    19    1
    22    16    11   ar
    23    17    10    1
    24    27    21    1
    25     7     6   am
    26    18     9   ar
    27    30    31   ar
    28    32    35   ar
    29    33    34   ar
    30    21    25   ar
    31    22    23   ar
    32    24    26   ar
    33     6     8    2
    34     9    10   ar
    35    11    12   ar
    36    13    14   ar
    37    15    16   ar
    38    27    28    1
    39    18    20    1
@<TRIPOS>MOLECULE
MolPort-020-296-475 MCULE-6995063905 PubChem-110268417
 35 39 0 0 0
SMALL
GASTEIGER

@<TRIPOS>ATOM
      1 C          12.1232   39.2824   10.4092 C.3     1  UNL1        0.0603
      2 C          12.0380   38.1203   11.4013 C.3     1  UNL1        0.0094
      3 C          13.2443   37.1976   11.2417 C.3     1  UNL1        0.0220
      4 C          14.5389   37.9817   11.4431 C.3     1  UNL1        0.0938
      5 C          13.4244   40.0591   10.6048 C.3     1  UNL1        0.0996
      6 C          15.5447   39.2354    9.5130 C.2     1  UNL1        0.2644
      7 N          14.5567   39.1378   10.5506 N.am    1  UNL1       -0.2745
      8 O          16.1406   38.1952    9.1224 O.2     1  UNL1       -0.2683
      9 C          15.8645   40.5192    8.8602 C.ar    1  UNL1        0.1069
     10 C          15.0218   41.2620    8.0311 C.ar    1  UNL1       -0.0003
     11 C          15.7312   42.3926    7.7117 C.ar    1  UNL1        0.0154
     12 C          16.9421   42.2955    8.3463 C.ar    1  UNL1        0.0565
     13 C          17.9031   43.2988    8.2417 C.ar    1  UNL1        0.0193
     14 C          17.5910   44.4243    7.4577 C.ar    1  UNL1        0.0311
     15 C          16.3412   44.5245    6.8088 C.ar    1  UNL1        0.1402
     16 C          15.3879   43.4984    6.9356 C.ar    1  UNL1        0.0308
     17 C          13.6009   40.9807    7.6737 C.3     1  UNL1        0.0327
     18 N          17.0425   41.1612    9.0636 N.ar    1  UNL1       -0.3498
     19 F          16.0570   45.6178    6.0615 F       1  UNL1       -0.2042
     20 H          17.8024   40.8632    9.6141 H       1  UNL1        0.1661
     21 C           9.0590   41.2051    9.5091 C.ar    1  UNL1        0.2214
     22 C           9.5251   41.6649   11.7842 C.ar    1  UNL1        0.1031
     23 C          10.6398   40.8309   11.7362 C.ar    1  UNL1        0.0356
     24 C          10.9381   40.1862   10.5308 C.ar    1  UNL1        0.0647
     25 N           8.7582   41.8367   10.6767 N.ar    1  UNL1       -0.2120
     26 N          10.1435   40.3880    9.4469 N.ar    1  UNL1       -0.2179
     27 N           8.2522   41.3854    8.3390 N.pl3   1  UNL1       -0.2680
     28 H           8.4749   40.8315    7.5561 H       1  UNL1        0.1565
     29 C           3.8924   45.0034    7.7577 C.3     1  UNL1        0.0327
     30 C           5.0341   44.0632    7.9014 C.ar    1  UNL1       -0.0026
     31 C           5.0580   43.1375    8.9458 C.ar    1  UNL1        0.0960
     32 C           7.1530   42.2931    8.1972 C.ar    1  UNL1        0.1343
     33 C           7.1601   43.2079    7.1402 C.ar    1  UNL1        0.0342
     34 C           6.0936   44.0967    6.9941 C.ar    1  UNL1        0.0001
     35 N           6.1066   42.2801    9.0706 N.ar    1  UNL1       -0.2293
@<TRIPOS>BOND
     1    29    30    1
     2    31    35   ar
     3    32    33   ar
     4    32    27    1
     5    34    30   ar
     6    21    26   ar
     7    22    25   ar
     8    23    24   ar
     9     1    24    1
    10     1     2    1
    11     2     3    1
    12     3     4    1
    13     4     7    1
    14     5     7    1
    15     5     1    1
    16     6     9    1
    17    10    11   ar
    18    12    18   ar
    19    12    13   ar
    20    14    15   ar
    21    15    19    1
    22    16    11   ar
    23    17    10    1
    24    27    21    1
    25     7     6   am
    26    18     9   ar
    27    30    31   ar
    28    32    35   ar
    29    33    34   ar
    30    21    25   ar
    31    22    23   ar
    32    24    26   ar
    33     6     8    2
    34     9    10   ar
    35    11    12   ar
    36    13    14   ar
    37    15    16   ar
    38    27    28    1
    39    18    20    1
