@<TRIPOS>MOLECULE
MolPort-007-723-578 8588081 CHEMBL1705810 ChemDiv-E157-6412 MCULE-4936432176 PubChem-16017475 ZINC000008588081 ZINC08588081
 30 32 0 0 0
SMALL
GASTEIGER

@<TRIPOS>ATOM
      1 C          11.5811   41.8207    6.9099 C.ar    1  UNL1        0.1896
      2 C           9.2073   41.6603    6.7123 C.ar    1  UNL1        0.2593
      3 N          11.1701   41.6098    5.6397 N.ar    1  UNL1       -0.1239
      4 N           9.8461   41.5197    5.5308 N.ar    1  UNL1       -0.1187
      5 S          10.2870   41.9068    7.9815 S.2     1  UNL1       -0.0102
      6 C          13.8388   42.9867    6.8614 C.2     1  UNL1        0.2510
      7 O          13.4347   43.8771    6.0646 O.2     1  UNL1       -0.2698
      8 N          12.9503   41.9519    7.3032 N.am    1  UNL1       -0.2592
      9 H          13.3104   41.2793    7.9255 H       1  UNL1        0.1571
     10 C          17.0793   41.9265    8.4992 C.ar    1  UNL1        0.1387
     11 C          17.8847   43.0489    8.2495 C.ar    1  UNL1        0.0369
     12 C          17.3697   44.1433    7.5509 C.ar    1  UNL1        0.0033
     13 C          16.0483   44.1236    7.0979 C.ar    1  UNL1        0.0047
     14 C          15.2323   43.0092    7.3400 C.ar    1  UNL1        0.0567
     15 C          15.7575   41.9147    8.0421 C.ar    1  UNL1        0.0414
     16 O          17.5641   40.8160    9.1959 O.3     1  UNL1       -0.4755
     17 C          15.4147   39.8321    9.5991 C.3     1  UNL1        0.0512
     18 C          16.7909   40.1180   10.1626 C.3     1  UNL1        0.2055
     19 O           7.0756   40.2130    7.4082 O.2     1  UNL1       -0.1477
     20 O           6.8273   41.7852    5.5495 O.2     1  UNL1       -0.1477
     21 S           7.4673   41.5693    6.8926 S.O2    1  UNL1        0.1010
     22 C           7.5075   44.1175    7.9038 C.3     1  UNL1        0.1392
     23 N           6.9300   42.7849    8.0137 N.pl3   1  UNL1       -0.1870
     24 C           5.9586   42.4907    9.0381 C.ar    1  UNL1        0.0689
     25 C           4.6287   42.9261    8.9070 C.ar    1  UNL1        0.0158
     26 C           3.6860   42.6464    9.9004 C.ar    1  UNL1       -0.0029
     27 C           4.0619   41.9273   11.0372 C.ar    1  UNL1       -0.0218
     28 C           3.0602   41.6302   12.0938 C.3     1  UNL1        0.0310
     29 C           5.3797   41.4874   11.1803 C.ar    1  UNL1       -0.0029
     30 C           6.3213   41.7675   10.1866 C.ar    1  UNL1        0.0158
@<TRIPOS>BOND
     1    17    18    1
     2    18    16    1
     3    10    16    1
     4    11    12   ar
     5    13    14   ar
     6    14     6    1
     7    15    10   ar
     8     6     8   am
     9     1     5   ar
    10     2     5   ar
    11    22    23    1
    12    25    26   ar
    13    27    29   ar
    14    28    27    1
    15    30    24   ar
    16     8     1    1
    17     3     4   ar
    18    23    24    1
    19    21     2    1
    20    21    23    1
    21    10    11   ar
    22    12    13   ar
    23    14    15   ar
    24     6     7    2
    25     1     3   ar
    26     2     4   ar
    27    24    25   ar
    28    26    27   ar
    29    29    30   ar
    30    21    19    2
    31    21    20    2
    32     8     9    1
@<TRIPOS>MOLECULE
MolPort-007-723-578 8588081 CHEMBL1705810 ChemDiv-E157-6412 MCULE-4936432176 PubChem-16017475 ZINC000008588081 ZINC08588081
 30 32 0 0 0
SMALL
GASTEIGER

@<TRIPOS>ATOM
      1 C           9.5225   42.3371    9.1245 C.ar    1  UNL1        0.1896
      2 C          11.7466   41.6783    8.5601 C.ar    1  UNL1        0.2593
      3 N          10.3834   42.4423   10.1611 N.ar    1  UNL1       -0.1239
      4 N          11.6234   42.0738    9.8454 N.ar    1  UNL1       -0.1187
      5 S          10.2809   41.7677    7.7349 S.2     1  UNL1       -0.0102
      6 C           7.3622   43.2251    8.1225 C.2     1  UNL1        0.2510
      7 O           7.9021   43.4670    7.0085 O.2     1  UNL1       -0.2698
      8 N           8.1317   42.6651    9.1948 N.am    1  UNL1       -0.2592
      9 H           7.6671   42.4929   10.0455 H       1  UNL1        0.1571
     10 C           3.7970   42.9867    9.3632 C.ar    1  UNL1        0.1387
     11 C           3.2127   44.0835    8.7101 C.ar    1  UNL1        0.0369
     12 C           3.9808   44.8934    7.8704 C.ar    1  UNL1        0.0033
     13 C           5.3358   44.6131    7.6778 C.ar    1  UNL1        0.0047
     14 C           5.9327   43.5209    8.3237 C.ar    1  UNL1        0.0567
     15 C           5.1541   42.7130    9.1652 C.ar    1  UNL1        0.0414
     16 O           3.0558   42.1567   10.2091 O.3     1  UNL1       -0.4755
     17 C           3.9663   40.3050   11.4310 C.3     1  UNL1        0.0512
     18 C           3.1892   40.7418   10.2069 C.3     1  UNL1        0.2055
     19 O          14.1200   42.2916    7.5047 O.2     1  UNL1       -0.1477
     20 O          12.9419   40.3452    6.6039 O.2     1  UNL1       -0.1477
     21 S          13.2496   41.1179    7.8562 S.O2    1  UNL1        0.1010
     22 C          15.4437   40.4783    9.3710 C.3     1  UNL1        0.1392
     23 N          14.0874   40.1044    8.9939 N.pl3   1  UNL1       -0.1870
     24 C          13.4775   38.9168    9.5391 C.ar    1  UNL1        0.0689
     25 C          12.3315   38.3643    8.9418 C.ar    1  UNL1        0.0158
     26 C          11.7354   37.2159    9.4707 C.ar    1  UNL1       -0.0029
     27 C          12.2786   36.6058   10.6035 C.ar    1  UNL1       -0.0218
     28 C          11.6450   35.3853   11.1665 C.3     1  UNL1        0.0310
     29 C          13.4178   37.1432   11.2069 C.ar    1  UNL1       -0.0029
     30 C          14.0130   38.2912   10.6773 C.ar    1  UNL1        0.0158
@<TRIPOS>BOND
     1    17    18    1
     2    18    16    1
     3    10    16    1
     4    11    12   ar
     5    13    14   ar
     6    14     6    1
     7    15    10   ar
     8     6     8   am
     9     1     5   ar
    10     2     5   ar
    11    22    23    1
    12    25    26   ar
    13    27    29   ar
    14    28    27    1
    15    30    24   ar
    16     8     1    1
    17     3     4   ar
    18    23    24    1
    19    21     2    1
    20    21    23    1
    21    10    11   ar
    22    12    13   ar
    23    14    15   ar
    24     6     7    2
    25     1     3   ar
    26     2     4   ar
    27    24    25   ar
    28    26    27   ar
    29    29    30   ar
    30    21    19    2
    31    21    20    2
    32     8     9    1
@<TRIPOS>MOLECULE
MolPort-007-723-578 8588081 CHEMBL1705810 ChemDiv-E157-6412 MCULE-4936432176 PubChem-16017475 ZINC000008588081 ZINC08588081
 30 32 0 0 0
SMALL
GASTEIGER

@<TRIPOS>ATOM
      1 C          11.7470   41.6933    6.5459 C.ar    1  UNL1        0.1896
      2 C           9.3700   41.4929    6.4507 C.ar    1  UNL1        0.2593
      3 N          11.2867   41.4569    5.2973 N.ar    1  UNL1       -0.1239
      4 N           9.9609   41.3445    5.2454 N.ar    1  UNL1       -0.1187
      5 S          10.4977   41.7754    7.6696 S.2     1  UNL1       -0.0102
      6 C          13.8875   43.0550    6.6982 C.2     1  UNL1        0.2510
      7 O          13.3443   44.0843    6.2120 O.2     1  UNL1       -0.2698
      8 N          13.1292   41.8518    6.8793 N.am    1  UNL1       -0.2592
      9 H          13.5958   41.0744    7.2628 H       1  UNL1        0.1571
     10 C          17.2088   42.0791    8.2226 C.ar    1  UNL1        0.1387
     11 C          18.0178   43.1491    7.8084 C.ar    1  UNL1        0.0369
     12 C          17.4789   44.1811    7.0367 C.ar    1  UNL1        0.0033
     13 C          16.1300   44.1510    6.6744 C.ar    1  UNL1        0.0047
     14 C          15.3102   43.0885    7.0810 C.ar    1  UNL1        0.0567
     15 C          15.8595   42.0565    7.8555 C.ar    1  UNL1        0.0414
     16 O          17.7172   41.0317    8.9960 O.3     1  UNL1       -0.4755
     17 C          15.4738   40.2763    9.3802 C.3     1  UNL1        0.0512
     18 C          16.9064   40.2589    9.8708 C.3     1  UNL1        0.2055
     19 O           7.2681   39.9655    7.0608 O.2     1  UNL1       -0.1477
     20 O           6.9353   41.7641    5.4353 O.2     1  UNL1       -0.1477
     21 S           7.6407   41.3775    6.7052 S.O2    1  UNL1        0.1010
     22 C           6.4396   43.6518    7.6553 C.3     1  UNL1        0.1392
     23 N           7.1669   42.4377    7.9994 N.pl3   1  UNL1       -0.1870
     24 C           7.4952   42.1460    9.3729 C.ar    1  UNL1        0.0689
     25 C           6.5722   41.4870   10.2032 C.ar    1  UNL1        0.0158
     26 C           6.8859   41.2070   11.5362 C.ar    1  UNL1       -0.0029
     27 C           8.1270   41.5824   12.0552 C.ar    1  UNL1       -0.0218
     28 C           8.4607   41.2855   13.4725 C.3     1  UNL1        0.0310
     29 C           9.0545   42.2369   11.2415 C.ar    1  UNL1       -0.0029
     30 C           8.7400   42.5163    9.9090 C.ar    1  UNL1        0.0158
@<TRIPOS>BOND
     1    17    18    1
     2    18    16    1
     3    10    16    1
     4    11    12   ar
     5    13    14   ar
     6    14     6    1
     7    15    10   ar
     8     6     8   am
     9     1     5   ar
    10     2     5   ar
    11    22    23    1
    12    25    26   ar
    13    27    29   ar
    14    28    27    1
    15    30    24   ar
    16     8     1    1
    17     3     4   ar
    18    23    24    1
    19    21     2    1
    20    21    23    1
    21    10    11   ar
    22    12    13   ar
    23    14    15   ar
    24     6     7    2
    25     1     3   ar
    26     2     4   ar
    27    24    25   ar
    28    26    27   ar
    29    29    30   ar
    30    21    19    2
    31    21    20    2
    32     8     9    1
@<TRIPOS>MOLECULE
MolPort-007-723-578 8588081 CHEMBL1705810 ChemDiv-E157-6412 MCULE-4936432176 PubChem-16017475 ZINC000008588081 ZINC08588081
 30 32 0 0 0
SMALL
GASTEIGER

@<TRIPOS>ATOM
      1 C          11.7825   38.3868    9.5930 C.ar    1  UNL1        0.1896
      2 C          13.9017   38.1912   10.6747 C.ar    1  UNL1        0.2593
      3 N          12.4892   37.3115    9.1793 N.ar    1  UNL1       -0.1239
      4 N          13.6713   37.2039    9.7826 N.ar    1  UNL1       -0.1187
      5 S          12.6142   39.2743   10.7553 S.2     1  UNL1       -0.0102
      6 C          10.2267   39.6744    8.0500 C.2     1  UNL1        0.2510
      7 O          11.1808   40.2666    7.4756 O.2     1  UNL1       -0.2698
      8 N          10.4846   38.7360    9.1029 N.am    1  UNL1       -0.2592
      9 H           9.7084   38.2980    9.5210 H       1  UNL1        0.1571
     10 C           6.8054   41.2732    7.8363 C.ar    1  UNL1        0.1387
     11 C           6.1986   40.4759    6.8531 C.ar    1  UNL1        0.0369
     12 C           6.9049   39.4235    6.2658 C.ar    1  UNL1        0.0033
     13 C           8.2201   39.1611    6.6569 C.ar    1  UNL1        0.0047
     14 C           8.8389   39.9493    7.6378 C.ar    1  UNL1        0.0567
     15 C           8.1225   41.0040    8.2220 C.ar    1  UNL1        0.0414
     16 O           6.1258   42.3329    8.4437 O.3     1  UNL1       -0.4755
     17 C           5.1683   44.4615    7.8932 C.3     1  UNL1        0.0512
     18 C           6.4407   43.6949    8.1875 C.3     1  UNL1        0.2055
     19 O          15.8024   36.9759   12.1006 O.2     1  UNL1       -0.1477
     20 O          15.1198   39.2214   12.7930 O.2     1  UNL1       -0.1477
     21 S          15.3766   38.3309   11.6094 S.O2    1  UNL1        0.1010
     22 C          17.9715   38.4290   10.7294 C.3     1  UNL1        0.1392
     23 N          16.6373   39.0025   10.6179 N.pl3   1  UNL1       -0.1870
     24 C          16.3877   40.1061    9.7239 C.ar    1  UNL1        0.0689
     25 C          15.1235   40.2745    9.1332 C.ar    1  UNL1        0.0158
     26 C          14.8799   41.3406    8.2626 C.ar    1  UNL1       -0.0029
     27 C          15.8978   42.2518    7.9725 C.ar    1  UNL1       -0.0218
     28 C          15.6396   43.3850    7.0467 C.3     1  UNL1        0.0310
     29 C          17.1587   42.0975    8.5531 C.ar    1  UNL1       -0.0029
     30 C          17.4012   41.0314    9.4233 C.ar    1  UNL1        0.0158
@<TRIPOS>BOND
     1    17    18    1
     2    18    16    1
     3    10    16    1
     4    11    12   ar
     5    13    14   ar
     6    14     6    1
     7    15    10   ar
     8     6     8   am
     9     1     5   ar
    10     2     5   ar
    11    22    23    1
    12    25    26   ar
    13    27    29   ar
    14    28    27    1
    15    30    24   ar
    16     8     1    1
    17     3     4   ar
    18    23    24    1
    19    21     2    1
    20    21    23    1
    21    10    11   ar
    22    12    13   ar
    23    14    15   ar
    24     6     7    2
    25     1     3   ar
    26     2     4   ar
    27    24    25   ar
    28    26    27   ar
    29    29    30   ar
    30    21    19    2
    31    21    20    2
    32     8     9    1
@<TRIPOS>MOLECULE
MolPort-007-723-578 8588081 CHEMBL1705810 ChemDiv-E157-6412 MCULE-4936432176 PubChem-16017475 ZINC000008588081 ZINC08588081
 30 32 0 0 0
SMALL
GASTEIGER

@<TRIPOS>ATOM
      1 C          13.7708   40.1174    9.9582 C.ar    1  UNL1        0.1896
      2 C          15.7959   38.9068   10.3226 C.ar    1  UNL1        0.2593
      3 N          14.6116   40.1647    8.9011 N.ar    1  UNL1       -0.1239
      4 N          15.7411   39.4898    9.1057 N.ar    1  UNL1       -0.1187
      5 S          14.4076   39.2133   11.2260 S.2     1  UNL1       -0.0102
      6 C          12.0502   41.7752    9.0917 C.2     1  UNL1        0.2510
      7 O          12.8040   42.1702    8.1607 O.2     1  UNL1       -0.2698
      8 N          12.4933   40.7599   10.0018 N.am    1  UNL1       -0.2592
      9 H          11.8700   40.4834   10.7120 H       1  UNL1        0.1571
     10 C           8.3304   42.3500    8.7179 C.ar    1  UNL1        0.1387
     11 C           8.1496   43.4737    9.5396 C.ar    1  UNL1        0.0369
     12 C           9.2376   44.0379   10.2098 C.ar    1  UNL1        0.0033
     13 C          10.5117   43.4838   10.0633 C.ar    1  UNL1        0.0047
     14 C          10.7070   42.3614    9.2458 C.ar    1  UNL1        0.0567
     15 C           9.6091   41.8013    8.5767 C.ar    1  UNL1        0.0414
     16 O           7.2628   41.7625    8.0332 O.3     1  UNL1       -0.4755
     17 C           6.8803   43.2118    6.1613 C.3     1  UNL1        0.0512
     18 C           7.1486   41.7928    6.6170 C.3     1  UNL1        0.2055
     19 O          16.7413   37.0886   12.0323 O.2     1  UNL1       -0.1477
     20 O          18.2332   38.9106   11.3673 O.2     1  UNL1       -0.1477
     21 S          17.1626   37.9695   10.8898 S.O2    1  UNL1        0.1010
     22 C          18.9976   37.3985    8.9342 C.3     1  UNL1        0.1392
     23 N          17.7704   36.9784    9.5969 N.pl3   1  UNL1       -0.1870
     24 C          17.0799   35.7863    9.1707 C.ar    1  UNL1        0.0689
     25 C          17.7884   34.5943    8.9413 C.ar    1  UNL1        0.0158
     26 C          17.1225   33.4385    8.5238 C.ar    1  UNL1       -0.0029
     27 C          15.7394   33.4606    8.3309 C.ar    1  UNL1       -0.0218
     28 C          15.0310   32.2322    7.8865 C.3     1  UNL1        0.0310
     29 C          15.0222   34.6377    8.5561 C.ar    1  UNL1       -0.0029
     30 C          15.6889   35.7926    8.9736 C.ar    1  UNL1        0.0158
@<TRIPOS>BOND
     1    17    18    1
     2    18    16    1
     3    10    16    1
     4    11    12   ar
     5    13    14   ar
     6    14     6    1
     7    15    10   ar
     8     6     8   am
     9     1     5   ar
    10     2     5   ar
    11    22    23    1
    12    25    26   ar
    13    27    29   ar
    14    28    27    1
    15    30    24   ar
    16     8     1    1
    17     3     4   ar
    18    23    24    1
    19    21     2    1
    20    21    23    1
    21    10    11   ar
    22    12    13   ar
    23    14    15   ar
    24     6     7    2
    25     1     3   ar
    26     2     4   ar
    27    24    25   ar
    28    26    27   ar
    29    29    30   ar
    30    21    19    2
    31    21    20    2
    32     8     9    1
@<TRIPOS>MOLECULE
MolPort-007-723-578 8588081 CHEMBL1705810 ChemDiv-E157-6412 MCULE-4936432176 PubChem-16017475 ZINC000008588081 ZINC08588081
 30 32 0 0 0
SMALL
GASTEIGER

@<TRIPOS>ATOM
      1 C          11.7544   39.6090    9.7178 C.ar    1  UNL1        0.1896
      2 C          13.8128   38.8318   10.6442 C.ar    1  UNL1        0.2593
      3 N          12.6965   40.5750    9.7954 N.ar    1  UNL1       -0.1239
      4 N          13.8439   40.1407   10.3131 N.ar    1  UNL1       -0.1187
      5 S          12.3175   38.1356   10.3028 S.2     1  UNL1       -0.0102
      6 C           9.6491   40.9946    9.3907 C.2     1  UNL1        0.2510
      7 O          10.1088   41.9673   10.0491 O.2     1  UNL1       -0.2698
      8 N          10.4342   39.8095    9.2045 N.am    1  UNL1       -0.2592
      9 H          10.0336   39.0768    8.6830 H       1  UNL1        0.1571
     10 C           6.0286   41.9582    8.8707 C.ar    1  UNL1        0.1387
     11 C           5.7237   41.2341    7.7072 C.ar    1  UNL1        0.0369
     12 C           6.6963   40.4371    7.0992 C.ar    1  UNL1        0.0033
     13 C           7.9782   40.3582    7.6490 C.ar    1  UNL1        0.0047
     14 C           8.2969   41.0759    8.8107 C.ar    1  UNL1        0.0567
     15 C           7.3143   41.8738    9.4146 C.ar    1  UNL1        0.0414
     16 O           5.0778   42.7639    9.5035 O.3     1  UNL1       -0.4755
     17 C           5.0545   44.6074    7.9699 C.3     1  UNL1        0.0512
     18 C           4.2210   43.6455    8.7905 C.3     1  UNL1        0.2055
     19 O          14.7455   36.5883   11.7488 O.2     1  UNL1       -0.1477
     20 O          15.6001   38.7175   12.5999 O.2     1  UNL1       -0.1477
     21 S          15.1633   37.9801   11.3648 S.O2    1  UNL1        0.1010
     22 C          17.4658   38.9574   10.2420 C.3     1  UNL1        0.1392
     23 N          16.4744   37.8904   10.2263 N.pl3   1  UNL1       -0.1870
     24 C          16.5777   36.8096    9.2773 C.ar    1  UNL1        0.0689
     25 C          15.5057   36.5073    8.4201 C.ar    1  UNL1        0.0158
     26 C          15.6012   35.4574    7.5024 C.ar    1  UNL1       -0.0029
     27 C          16.7705   34.6970    7.4305 C.ar    1  UNL1       -0.0218
     28 C          16.8724   33.5803    6.4554 C.3     1  UNL1        0.0310
     29 C          17.8443   34.9867    8.2754 C.ar    1  UNL1       -0.0029
     30 C          17.7478   36.0366    9.1924 C.ar    1  UNL1        0.0158
@<TRIPOS>BOND
     1    17    18    1
     2    18    16    1
     3    10    16    1
     4    11    12   ar
     5    13    14   ar
     6    14     6    1
     7    15    10   ar
     8     6     8   am
     9     1     5   ar
    10     2     5   ar
    11    22    23    1
    12    25    26   ar
    13    27    29   ar
    14    28    27    1
    15    30    24   ar
    16     8     1    1
    17     3     4   ar
    18    23    24    1
    19    21     2    1
    20    21    23    1
    21    10    11   ar
    22    12    13   ar
    23    14    15   ar
    24     6     7    2
    25     1     3   ar
    26     2     4   ar
    27    24    25   ar
    28    26    27   ar
    29    29    30   ar
    30    21    19    2
    31    21    20    2
    32     8     9    1
@<TRIPOS>MOLECULE
MolPort-007-723-578 8588081 CHEMBL1705810 ChemDiv-E157-6412 MCULE-4936432176 PubChem-16017475 ZINC000008588081 ZINC08588081
 30 32 0 0 0
SMALL
GASTEIGER

@<TRIPOS>ATOM
      1 C           9.7747   41.0088    9.6636 C.ar    1  UNL1        0.1896
      2 C          12.0277   40.2397    9.4854 C.ar    1  UNL1        0.2593
      3 N          10.2817   41.1440    8.4181 N.ar    1  UNL1       -0.1239
      4 N          11.5386   40.7155    8.3200 N.ar    1  UNL1       -0.1187
      5 S          10.8918   40.3344   10.7256 S.2     1  UNL1       -0.0102
      6 C           7.2750   41.1949    9.2437 C.2     1  UNL1        0.2510
      7 O           7.3578   40.6411    8.1135 O.2     1  UNL1       -0.2698
      8 N           8.4497   41.3942   10.0412 N.am    1  UNL1       -0.2592
      9 H           8.3357   41.8301   10.9165 H       1  UNL1        0.1571
     10 C           3.9795   43.0320    9.5126 C.ar    1  UNL1        0.1387
     11 C           3.4673   42.4895   10.7017 C.ar    1  UNL1        0.0369
     12 C           4.1960   41.5304   11.4089 C.ar    1  UNL1        0.0033
     13 C           5.4398   41.1078   10.9334 C.ar    1  UNL1        0.0047
     14 C           5.9638   41.6410    9.7471 C.ar    1  UNL1        0.0567
     15 C           5.2254   42.6034    9.0433 C.ar    1  UNL1        0.0414
     16 O           3.2757   43.9936    8.7821 O.3     1  UNL1       -0.4755
     17 C           5.3364   44.9270    7.9861 C.3     1  UNL1        0.0512
     18 C           3.8602   44.7266    7.7140 C.3     1  UNL1        0.2055
     19 O          14.1452   39.8920   11.0723 O.2     1  UNL1       -0.1477
     20 O          14.5591   40.3276    8.7002 O.2     1  UNL1       -0.1477
     21 S          13.6569   39.6251    9.6762 S.O2    1  UNL1        0.1010
     22 C          12.4115   37.1917    9.4635 C.3     1  UNL1        0.1392
     23 N          13.6751   37.9116    9.3812 N.pl3   1  UNL1       -0.1870
     24 C          14.8990   37.2097    9.0834 C.ar    1  UNL1        0.0689
     25 C          16.0476   37.4130    9.8676 C.ar    1  UNL1        0.0158
     26 C          17.2366   36.7375    9.5785 C.ar    1  UNL1       -0.0029
     27 C          17.2915   35.8499    8.5016 C.ar    1  UNL1       -0.0218
     28 C          18.5555   35.1320    8.1936 C.3     1  UNL1        0.0310
     29 C          16.1576   35.6372    7.7143 C.ar    1  UNL1       -0.0029
     30 C          14.9693   36.3129    8.0042 C.ar    1  UNL1        0.0158
@<TRIPOS>BOND
     1    17    18    1
     2    18    16    1
     3    10    16    1
     4    11    12   ar
     5    13    14   ar
     6    14     6    1
     7    15    10   ar
     8     6     8   am
     9     1     5   ar
    10     2     5   ar
    11    22    23    1
    12    25    26   ar
    13    27    29   ar
    14    28    27    1
    15    30    24   ar
    16     8     1    1
    17     3     4   ar
    18    23    24    1
    19    21     2    1
    20    21    23    1
    21    10    11   ar
    22    12    13   ar
    23    14    15   ar
    24     6     7    2
    25     1     3   ar
    26     2     4   ar
    27    24    25   ar
    28    26    27   ar
    29    29    30   ar
    30    21    19    2
    31    21    20    2
    32     8     9    1
@<TRIPOS>MOLECULE
MolPort-007-723-578 8588081 CHEMBL1705810 ChemDiv-E157-6412 MCULE-4936432176 PubChem-16017475 ZINC000008588081 ZINC08588081
 30 32 0 0 0
SMALL
GASTEIGER

@<TRIPOS>ATOM
      1 C          10.7184   39.8526    9.5999 C.ar    1  UNL1        0.1896
      2 C          12.9088   39.0482   10.1042 C.ar    1  UNL1        0.2593
      3 N          11.0910   38.8126    8.8214 N.ar    1  UNL1       -0.1239
      4 N          12.3132   38.3652    9.1029 N.ar    1  UNL1       -0.1187
      5 S          11.9192   40.2742   10.7001 S.2     1  UNL1       -0.0102
      6 C           9.2207   41.7305    8.7693 C.2     1  UNL1        0.2510
      7 O          10.1608   42.2904    8.1419 O.2     1  UNL1       -0.2698
      8 N           9.4575   40.5216    9.5027 N.am    1  UNL1       -0.2592
      9 H           8.6931   40.1206    9.9762 H       1  UNL1        0.1571
     10 C           5.4562   42.0677    8.9180 C.ar    1  UNL1        0.1387
     11 C           5.3033   43.4484    8.7153 C.ar    1  UNL1        0.0369
     12 C           6.4243   44.2611    8.5313 C.ar    1  UNL1        0.0033
     13 C           7.7037   43.7004    8.5483 C.ar    1  UNL1        0.0047
     14 C           7.8715   42.3229    8.7497 C.ar    1  UNL1        0.0567
     15 C           6.7406   41.5143    8.9338 C.ar    1  UNL1        0.0414
     16 O           4.3551   41.2272    9.1044 O.3     1  UNL1       -0.4755
     17 C           4.1657   41.7136   11.4450 C.3     1  UNL1        0.0512
     18 C           4.0257   40.6608   10.3655 C.3     1  UNL1        0.2055
     19 O          14.9050   37.2930   10.3436 O.2     1  UNL1       -0.1477
     20 O          14.5501   38.8714   12.1796 O.2     1  UNL1       -0.1477
     21 S          14.5255   38.7065   10.6855 S.O2    1  UNL1        0.1010
     22 C          17.0391   39.7651   10.4049 C.3     1  UNL1        0.1392
     23 N          15.6577   39.7984    9.9443 N.pl3   1  UNL1       -0.1870
     24 C          15.2504   40.7270    8.9190 C.ar    1  UNL1        0.0689
     25 C          16.1126   41.7569    8.5052 C.ar    1  UNL1        0.0158
     26 C          15.7189   42.6612    7.5149 C.ar    1  UNL1       -0.0029
     27 C          14.4578   42.5463    6.9257 C.ar    1  UNL1       -0.0218
     28 C          14.0385   43.5078    5.8733 C.3     1  UNL1        0.0310
     29 C          13.5909   41.5270    7.3262 C.ar    1  UNL1       -0.0029
     30 C          13.9856   40.6234    8.3163 C.ar    1  UNL1        0.0158
@<TRIPOS>BOND
     1    17    18    1
     2    18    16    1
     3    10    16    1
     4    11    12   ar
     5    13    14   ar
     6    14     6    1
     7    15    10   ar
     8     6     8   am
     9     1     5   ar
    10     2     5   ar
    11    22    23    1
    12    25    26   ar
    13    27    29   ar
    14    28    27    1
    15    30    24   ar
    16     8     1    1
    17     3     4   ar
    18    23    24    1
    19    21     2    1
    20    21    23    1
    21    10    11   ar
    22    12    13   ar
    23    14    15   ar
    24     6     7    2
    25     1     3   ar
    26     2     4   ar
    27    24    25   ar
    28    26    27   ar
    29    29    30   ar
    30    21    19    2
    31    21    20    2
    32     8     9    1
@<TRIPOS>MOLECULE
MolPort-007-723-578 8588081 CHEMBL1705810 ChemDiv-E157-6412 MCULE-4936432176 PubChem-16017475 ZINC000008588081 ZINC08588081
 30 32 0 0 0
SMALL
GASTEIGER

@<TRIPOS>ATOM
      1 C           9.6682   42.8788    9.2532 C.ar    1  UNL1        0.1896
      2 C          11.8412   42.5617    8.3169 C.ar    1  UNL1        0.2593
      3 N          10.6448   43.4762    9.9715 N.ar    1  UNL1       -0.1239
      4 N          11.8565   43.2981    9.4488 N.ar    1  UNL1       -0.1187
      5 S          10.2802   42.0826    7.9034 S.2     1  UNL1       -0.0102
      6 C           7.3738   41.8079    9.4724 C.2     1  UNL1        0.2510
      7 O           7.7787   40.6968    9.0338 O.2     1  UNL1       -0.2698
      8 N           8.2796   42.9123    9.5960 N.am    1  UNL1       -0.2592
      9 H           7.9181   43.7594    9.9437 H       1  UNL1        0.1571
     10 C           3.7727   42.9652    9.4691 C.ar    1  UNL1        0.1387
     11 C           3.2723   42.2854   10.5908 C.ar    1  UNL1        0.0369
     12 C           4.1083   41.4554   11.3415 C.ar    1  UNL1        0.0033
     13 C           5.4479   41.2997   10.9769 C.ar    1  UNL1        0.0047
     14 C           5.9613   41.9726    9.8588 C.ar    1  UNL1        0.0567
     15 C           5.1149   42.8037    9.1107 C.ar    1  UNL1        0.0414
     16 O           2.9627   43.8034    8.6977 O.3     1  UNL1       -0.4755
     17 C           4.9981   44.7599    7.8653 C.3     1  UNL1        0.0512
     18 C           3.4869   44.8528    7.8954 C.3     1  UNL1        0.2055
     19 O          14.0201   43.3888    7.0163 O.2     1  UNL1       -0.1477
     20 O          12.8754   41.3985    6.1698 O.2     1  UNL1       -0.1477
     21 S          13.2812   42.1413    7.4122 S.O2    1  UNL1        0.1010
     22 C          15.7149   41.5421    8.5237 C.3     1  UNL1        0.1392
     23 N          14.3190   41.1476    8.3914 N.pl3   1  UNL1       -0.1870
     24 C          13.8306   39.9565    9.0410 C.ar    1  UNL1        0.0689
     25 C          13.1271   38.9827    8.3114 C.ar    1  UNL1        0.0158
     26 C          12.6485   37.8293    8.9394 C.ar    1  UNL1       -0.0029
     27 C          12.8680   37.6354   10.3050 C.ar    1  UNL1       -0.0218
     28 C          12.3589   36.4097   10.9731 C.3     1  UNL1        0.0310
     29 C          13.5665   38.5942   11.0424 C.ar    1  UNL1       -0.0029
     30 C          14.0446   39.7468   10.4136 C.ar    1  UNL1        0.0158
@<TRIPOS>BOND
     1    17    18    1
     2    18    16    1
     3    10    16    1
     4    11    12   ar
     5    13    14   ar
     6    14     6    1
     7    15    10   ar
     8     6     8   am
     9     1     5   ar
    10     2     5   ar
    11    22    23    1
    12    25    26   ar
    13    27    29   ar
    14    28    27    1
    15    30    24   ar
    16     8     1    1
    17     3     4   ar
    18    23    24    1
    19    21     2    1
    20    21    23    1
    21    10    11   ar
    22    12    13   ar
    23    14    15   ar
    24     6     7    2
    25     1     3   ar
    26     2     4   ar
    27    24    25   ar
    28    26    27   ar
    29    29    30   ar
    30    21    19    2
    31    21    20    2
    32     8     9    1
@<TRIPOS>MOLECULE
MolPort-007-723-578 8588081 CHEMBL1705810 ChemDiv-E157-6412 MCULE-4936432176 PubChem-16017475 ZINC000008588081 ZINC08588081
 30 32 0 0 0
SMALL
GASTEIGER

@<TRIPOS>ATOM
      1 C           9.5278   40.9199    9.5992 C.ar    1  UNL1        0.1896
      2 C          11.6923   39.9248    9.4441 C.ar    1  UNL1        0.2593
      3 N          10.4743   41.6066   10.2770 N.ar    1  UNL1       -0.1239
      4 N          11.6810   41.0503   10.1905 N.ar    1  UNL1       -0.1187
      5 S          10.1621   39.5574    8.8433 S.2     1  UNL1       -0.0102
      6 C           7.2896   41.4821   10.6640 C.2     1  UNL1        0.2510
      7 O           7.7294   41.3105   11.8336 O.2     1  UNL1       -0.2698
      8 N           8.1498   41.2986    9.5318 N.am    1  UNL1       -0.2592
      9 H           7.7622   41.4444    8.6386 H       1  UNL1        0.1571
     10 C           3.5911   41.9916   11.2711 C.ar    1  UNL1        0.1387
     11 C           3.2071   42.6160   10.0739 C.ar    1  UNL1        0.0369
     12 C           4.1523   42.8673    9.0766 C.ar    1  UNL1        0.0033
     13 C           5.4855   42.4966    9.2687 C.ar    1  UNL1        0.0047
     14 C           5.8833   41.8722   10.4596 C.ar    1  UNL1        0.0567
     15 C           4.9278   41.6238   11.4556 C.ar    1  UNL1        0.0414
     16 O           2.6697   41.7254   12.2880 O.3     1  UNL1       -0.4755
     17 C           0.8597   42.1091   13.8136 C.3     1  UNL1        0.0512
     18 C           1.5347   42.5457   12.5302 C.3     1  UNL1        0.2055
     19 O          13.1866   38.5359    7.7234 O.2     1  UNL1       -0.1477
     20 O          13.0651   37.7335   10.0319 O.2     1  UNL1       -0.1477
     21 S          13.1269   38.9595    9.1642 S.O2    1  UNL1        0.1010
     22 C          15.2711   39.5605   10.7639 C.3     1  UNL1        0.1392
     23 N          14.5441   39.8918    9.5459 N.pl3   1  UNL1       -0.1870
     24 C          14.9852   40.9749    8.7022 C.ar    1  UNL1        0.0689
     25 C          16.2867   41.4911    8.8250 C.ar    1  UNL1        0.0158
     26 C          16.7155   42.5439    8.0118 C.ar    1  UNL1       -0.0029
     27 C          15.8478   43.0933    7.0653 C.ar    1  UNL1       -0.0218
     28 C          16.3030   44.2129    6.2009 C.3     1  UNL1        0.0310
     29 C          14.5520   42.5897    6.9314 C.ar    1  UNL1       -0.0029
     30 C          14.1243   41.5370    7.7448 C.ar    1  UNL1        0.0158
@<TRIPOS>BOND
     1    17    18    1
     2    18    16    1
     3    10    16    1
     4    11    12   ar
     5    13    14   ar
     6    14     6    1
     7    15    10   ar
     8     6     8   am
     9     1     5   ar
    10     2     5   ar
    11    22    23    1
    12    25    26   ar
    13    27    29   ar
    14    28    27    1
    15    30    24   ar
    16     8     1    1
    17     3     4   ar
    18    23    24    1
    19    21     2    1
    20    21    23    1
    21    10    11   ar
    22    12    13   ar
    23    14    15   ar
    24     6     7    2
    25     1     3   ar
    26     2     4   ar
    27    24    25   ar
    28    26    27   ar
    29    29    30   ar
    30    21    19    2
    31    21    20    2
    32     8     9    1
