@<TRIPOS>MOLECULE
Molport-053-335-138
 16 17 0 0 0
SMALL
GASTEIGER

@<TRIPOS>ATOM
      1 C          12.4612   41.1074    7.8014 C.ar    1  UNL1        0.1396
      2 C          12.9155   40.1010    8.6422 C.ar    1  UNL1        0.1335
      3 C          14.5545   41.3666    8.1540 C.ar    1  UNL1        0.1493
      4 C          15.8191   41.9453    8.0660 C.ar    1  UNL1        0.0441
      5 C          15.9558   43.1023    7.2808 C.ar    1  UNL1        0.0391
      6 C          14.8391   43.6426    6.6129 C.ar    1  UNL1        0.0259
      7 C          13.5894   43.0185    6.7378 C.ar    1  UNL1        0.0831
      8 N          14.2424   40.2621    8.8641 N.ar    1  UNL1       -0.2235
      9 N          13.5031   41.9028    7.5095 N.ar    1  UNL1       -0.2772
     10 BR         17.6617   43.9442    7.1177 Br      1  UNL1       -0.0488
     11 C          10.5766   40.9000    6.1128 C.2     1  UNL1        0.2438
     12 O          11.3324   40.4296    5.2210 O.2     1  UNL1       -0.2734
     13 N          11.1093   41.3404    7.3714 N.am    1  UNL1       -0.2681
     14 H          10.5108   41.8331    7.9784 H       1  UNL1        0.1563
     15 CL          8.4025   39.3659    5.7864 Cl      1  UNL1       -0.1033
     16 C           9.1079   40.9983    5.8503 C.3     1  UNL1        0.1797
@<TRIPOS>BOND
     1    16    15    1
     2    16    11    1
     3    11    13   am
     4     2     8   ar
     5     3     4   ar
     6     5    10    1
     7     5     6   ar
     8     7     9   ar
     9    13     1    1
    10     9     1   ar
    11     9     3   ar
    12    11    12    2
    13     1     2   ar
    14     3     8   ar
    15     4     5   ar
    16     6     7   ar
    17    13    14    1
@<TRIPOS>MOLECULE
Molport-053-335-138
 16 17 0 0 0
SMALL
GASTEIGER

@<TRIPOS>ATOM
      1 C          13.1981   39.9088    8.6055 C.ar    1  UNL1        0.1396
      2 C          12.0991   40.1118    7.7827 C.ar    1  UNL1        0.1335
      3 C          13.5877   41.5500    7.2909 C.ar    1  UNL1        0.1493
      4 C          14.2926   42.6013    6.7080 C.ar    1  UNL1        0.0441
      5 C          15.5857   42.8676    7.1886 C.ar    1  UNL1        0.0391
      6 C          16.1322   42.0864    8.2258 C.ar    1  UNL1        0.0259
      7 C          15.3773   41.0398    8.7752 C.ar    1  UNL1        0.0831
      8 N          12.3431   41.1534    6.9513 N.ar    1  UNL1       -0.2235
      9 N          14.1320   40.8166    8.2778 N.ar    1  UNL1       -0.2772
     10 BR         16.6049   44.2947    6.4335 Br      1  UNL1       -0.0488
     11 C          12.5061   37.7348    9.7193 C.2     1  UNL1        0.2438
     12 O          11.4133   37.6799    9.0942 O.2     1  UNL1       -0.2734
     13 N          13.3762   38.8687    9.5819 N.am    1  UNL1       -0.2681
     14 H          14.1433   38.9383   10.1951 H       1  UNL1        0.1563
     15 CL         11.4594   35.6212   10.9937 Cl      1  UNL1       -0.1033
     16 C          12.8950   36.6016   10.6138 C.3     1  UNL1        0.1797
@<TRIPOS>BOND
     1    16    15    1
     2    16    11    1
     3    11    13   am
     4     2     8   ar
     5     3     4   ar
     6     5    10    1
     7     5     6   ar
     8     7     9   ar
     9    13     1    1
    10     9     1   ar
    11     9     3   ar
    12    11    12    2
    13     1     2   ar
    14     3     8   ar
    15     4     5   ar
    16     6     7   ar
    17    13    14    1
@<TRIPOS>MOLECULE
Molport-053-335-138
 16 17 0 0 0
SMALL
GASTEIGER

@<TRIPOS>ATOM
      1 C          13.5050   42.1819    7.3762 C.ar    1  UNL1        0.1396
      2 C          12.1635   42.4091    7.6500 C.ar    1  UNL1        0.1335
      3 C          12.9439   41.0969    9.1317 C.ar    1  UNL1        0.1493
      4 C          13.0884   40.2596   10.2361 C.ar    1  UNL1        0.0441
      5 C          14.3559   39.7011   10.4721 C.ar    1  UNL1        0.0391
      6 C          15.4308   39.9906    9.6086 C.ar    1  UNL1        0.0259
      7 C          15.2279   40.8410    8.5121 C.ar    1  UNL1        0.0831
      8 N          11.8057   41.7198    8.7602 N.ar    1  UNL1       -0.2235
      9 N          13.9860   41.3606    8.3236 N.ar    1  UNL1       -0.2772
     10 BR         14.6213   38.5446   11.9679 Br      1  UNL1       -0.0488
     11 C          15.3773   43.6869    6.5544 C.2     1  UNL1        0.2438
     12 O          15.5867   44.1705    7.6991 O.2     1  UNL1       -0.2734
     13 N          14.2935   42.7724    6.3291 N.am    1  UNL1       -0.2681
     14 H          14.0766   42.5347    5.3987 H       1  UNL1        0.1563
     15 CL         17.9523   43.6353    5.8103 Cl      1  UNL1       -0.1033
     16 C          16.2724   44.0748    5.4213 C.3     1  UNL1        0.1797
@<TRIPOS>BOND
     1    16    15    1
     2    16    11    1
     3    11    13   am
     4     2     8   ar
     5     3     4   ar
     6     5    10    1
     7     5     6   ar
     8     7     9   ar
     9    13     1    1
    10     9     1   ar
    11     9     3   ar
    12    11    12    2
    13     1     2   ar
    14     3     8   ar
    15     4     5   ar
    16     6     7   ar
    17    13    14    1
@<TRIPOS>MOLECULE
Molport-053-335-138
 16 17 0 0 0
SMALL
GASTEIGER

@<TRIPOS>ATOM
      1 C          14.7297   41.5331    8.0772 C.ar    1  UNL1        0.1396
      2 C          14.9667   40.5237    8.9998 C.ar    1  UNL1        0.1335
      3 C          13.1442   40.1007    7.9868 C.ar    1  UNL1        0.1493
      4 C          11.9570   39.5107    7.5577 C.ar    1  UNL1        0.0441
      5 C          11.2363   40.1568    6.5393 C.ar    1  UNL1        0.0391
      6 C          11.7154   41.3601    5.9847 C.ar    1  UNL1        0.0259
      7 C          12.9175   41.9085    6.4551 C.ar    1  UNL1        0.0831
      8 N          13.9614   39.6170    8.9460 N.ar    1  UNL1       -0.2235
      9 N          13.5825   41.2483    7.4397 N.ar    1  UNL1       -0.2772
     10 BR          9.6011   39.4015    5.9061 Br      1  UNL1       -0.0488
     11 C          17.0152   42.6081    7.8189 C.2     1  UNL1        0.2438
     12 O          17.6152   41.6194    8.3192 O.2     1  UNL1       -0.2734
     13 N          15.5808   42.6499    7.7687 N.am    1  UNL1       -0.2681
     14 H          15.1530   43.4970    7.5065 H       1  UNL1        0.1563
     15 CL         17.6116   43.8265    5.5066 Cl      1  UNL1       -0.1033
     16 C          17.8131   43.7486    7.2729 C.3     1  UNL1        0.1797
@<TRIPOS>BOND
     1    16    15    1
     2    16    11    1
     3    11    13   am
     4     2     8   ar
     5     3     4   ar
     6     5    10    1
     7     5     6   ar
     8     7     9   ar
     9    13     1    1
    10     9     1   ar
    11     9     3   ar
    12    11    12    2
    13     1     2   ar
    14     3     8   ar
    15     4     5   ar
    16     6     7   ar
    17    13    14    1
@<TRIPOS>MOLECULE
Molport-053-335-138
 16 17 0 0 0
SMALL
GASTEIGER

@<TRIPOS>ATOM
      1 C          13.8778   41.8096    7.4018 C.ar    1  UNL1        0.1396
      2 C          14.7073   42.8141    6.9232 C.ar    1  UNL1        0.1335
      3 C          15.8038   41.6364    8.3149 C.ar    1  UNL1        0.1493
      4 C          16.8054   41.1178    9.1333 C.ar    1  UNL1        0.0441
      5 C          16.4964   39.9881    9.9093 C.ar    1  UNL1        0.0391
      6 C          15.2110   39.4148    9.8476 C.ar    1  UNL1        0.0259
      7 C          14.2416   39.9785    9.0053 C.ar    1  UNL1        0.0831
      8 N          15.9271   42.7077    7.5032 N.ar    1  UNL1       -0.2235
      9 N          14.5852   41.0695    8.2709 N.ar    1  UNL1       -0.2772
     10 BR         17.8236   39.2285   11.0525 Br      1  UNL1       -0.0488
     11 C          11.3639   41.9220    7.7388 C.2     1  UNL1        0.2438
     12 O          11.4697   42.3944    8.9022 O.2     1  UNL1       -0.2734
     13 N          12.5277   41.5265    6.9966 N.am    1  UNL1       -0.2681
     14 H          12.3927   41.0301    6.1572 H       1  UNL1        0.1563
     15 CL         10.1669   41.3969    5.3982 Cl      1  UNL1       -0.1033
     16 C          10.0063   41.7740    7.1298 C.3     1  UNL1        0.1797
@<TRIPOS>BOND
     1    16    15    1
     2    16    11    1
     3    11    13   am
     4     2     8   ar
     5     3     4   ar
     6     5    10    1
     7     5     6   ar
     8     7     9   ar
     9    13     1    1
    10     9     1   ar
    11     9     3   ar
    12    11    12    2
    13     1     2   ar
    14     3     8   ar
    15     4     5   ar
    16     6     7   ar
    17    13    14    1
@<TRIPOS>MOLECULE
Molport-053-335-138
 16 17 0 0 0
SMALL
GASTEIGER

@<TRIPOS>ATOM
      1 C           8.5136   43.2687    9.8473 C.ar    1  UNL1        0.1396
      2 C           9.3848   44.2421   10.3162 C.ar    1  UNL1        0.1335
      3 C          10.5290   42.5968    9.6017 C.ar    1  UNL1        0.1493
      4 C          11.5752   41.7484    9.2447 C.ar    1  UNL1        0.0441
      5 C          11.2458   40.5129    8.6624 C.ar    1  UNL1        0.0391
      6 C           9.8968   40.1631    8.4556 C.ar    1  UNL1        0.0259
      7 C           8.8843   41.0568    8.8340 C.ar    1  UNL1        0.0831
      8 N          10.6621   43.8165   10.1642 N.ar    1  UNL1       -0.2235
      9 N           9.2492   42.2417    9.3915 N.ar    1  UNL1       -0.2772
     10 BR         12.6319   39.3037    8.1508 Br      1  UNL1       -0.0488
     11 C           6.3599   43.7103    8.5775 C.2     1  UNL1        0.2438
     12 O           6.9643   44.1620    7.5683 O.2     1  UNL1       -0.2734
     13 N           7.0805   43.3476    9.7653 N.am    1  UNL1       -0.2681
     14 H           6.5602   43.1397   10.5749 H       1  UNL1        0.1563
     15 CL          4.1490   44.9663    7.7282 Cl      1  UNL1       -0.1033
     16 C           4.8737   43.5530    8.5306 C.3     1  UNL1        0.1797
@<TRIPOS>BOND
     1    16    15    1
     2    16    11    1
     3    11    13   am
     4     2     8   ar
     5     3     4   ar
     6     5    10    1
     7     5     6   ar
     8     7     9   ar
     9    13     1    1
    10     9     1   ar
    11     9     3   ar
    12    11    12    2
    13     1     2   ar
    14     3     8   ar
    15     4     5   ar
    16     6     7   ar
    17    13    14    1
@<TRIPOS>MOLECULE
Molport-053-335-138
 16 17 0 0 0
SMALL
GASTEIGER

@<TRIPOS>ATOM
      1 C          11.5499   41.3165    6.3095 C.ar    1  UNL1        0.1396
      2 C          10.1750   41.4346    6.1621 C.ar    1  UNL1        0.1335
      3 C          10.5762   39.8493    7.5231 C.ar    1  UNL1        0.1493
      4 C          10.4486   38.7911    8.4207 C.ar    1  UNL1        0.0441
      5 C          11.6262   38.2340    8.9468 C.ar    1  UNL1        0.0391
      6 C          12.8836   38.7429    8.5661 C.ar    1  UNL1        0.0259
      7 C          12.9523   39.8103    7.6590 C.ar    1  UNL1        0.0831
      8 N           9.5567   40.5035    6.9279 N.ar    1  UNL1       -0.2235
      9 N          11.7877   40.3196    7.1774 N.ar    1  UNL1       -0.2772
     10 BR         11.5213   36.7812   10.1812 Br      1  UNL1       -0.0488
     11 C          13.3748   43.0746    6.4676 C.2     1  UNL1        0.2438
     12 O          13.1134   43.3396    7.6715 O.2     1  UNL1       -0.2734
     13 N          12.5645   42.1507    5.7249 N.am    1  UNL1       -0.2681
     14 H          12.7130   42.0842    4.7539 H       1  UNL1        0.1563
     15 CL         15.8144   44.0393    7.0192 Cl      1  UNL1       -0.1033
     16 C          14.5446   43.7343    5.8105 C.3     1  UNL1        0.1797
@<TRIPOS>BOND
     1    16    15    1
     2    16    11    1
     3    11    13   am
     4     2     8   ar
     5     3     4   ar
     6     5    10    1
     7     5     6   ar
     8     7     9   ar
     9    13     1    1
    10     9     1   ar
    11     9     3   ar
    12    11    12    2
    13     1     2   ar
    14     3     8   ar
    15     4     5   ar
    16     6     7   ar
    17    13    14    1
@<TRIPOS>MOLECULE
Molport-053-335-138
 16 17 0 0 0
SMALL
GASTEIGER

@<TRIPOS>ATOM
      1 C          12.5202   41.0047    7.2734 C.ar    1  UNL1        0.1396
      2 C          12.8637   39.8813    8.0125 C.ar    1  UNL1        0.1335
      3 C          10.8107   39.7355    7.4738 C.ar    1  UNL1        0.1493
      4 C           9.4951   39.3033    7.3178 C.ar    1  UNL1        0.0441
      5 C           8.6214   40.1201    6.5806 C.ar    1  UNL1        0.0391
      6 C           9.0803   41.3315    6.0266 C.ar    1  UNL1        0.0259
      7 C          10.4156   41.7166    6.2149 C.ar    1  UNL1        0.0831
      8 N          11.7808   39.0776    8.1430 N.ar    1  UNL1       -0.2235
      9 N          11.2258   40.8945    6.9329 N.ar    1  UNL1       -0.2772
     10 BR          6.8055   39.5863    6.3301 Br      1  UNL1       -0.0488
     11 C          14.7363   42.2429    7.3162 C.2     1  UNL1        0.2438
     12 O          15.1823   41.5562    8.2741 O.2     1  UNL1       -0.2734
     13 N          13.3883   42.0705    6.8524 N.am    1  UNL1       -0.2681
     14 H          13.0364   42.7235    6.2051 H       1  UNL1        0.1563
     15 CL         14.6574   44.3119    5.6134 Cl      1  UNL1       -0.1033
     16 C          15.6272   43.2481    6.6594 C.3     1  UNL1        0.1797
@<TRIPOS>BOND
     1    16    15    1
     2    16    11    1
     3    11    13   am
     4     2     8   ar
     5     3     4   ar
     6     5    10    1
     7     5     6   ar
     8     7     9   ar
     9    13     1    1
    10     9     1   ar
    11     9     3   ar
    12    11    12    2
    13     1     2   ar
    14     3     8   ar
    15     4     5   ar
    16     6     7   ar
    17    13    14    1
@<TRIPOS>MOLECULE
Molport-053-335-138
 16 17 0 0 0
SMALL
GASTEIGER

@<TRIPOS>ATOM
      1 C          15.8700   39.0121   10.5671 C.ar    1  UNL1        0.1396
      2 C          15.4036   38.4635   11.7536 C.ar    1  UNL1        0.1335
      3 C          13.8500   39.6345   10.8925 C.ar    1  UNL1        0.1493
      4 C          12.6397   40.2799   10.6462 C.ar    1  UNL1        0.0441
      5 C          12.5328   41.0435    9.4718 C.ar    1  UNL1        0.0391
      6 C          13.6246   41.1406    8.5866 C.ar    1  UNL1        0.0259
      7 C          14.8192   40.4690    8.8850 C.ar    1  UNL1        0.0831
      8 N          14.1249   38.8596   11.9628 N.ar    1  UNL1       -0.2235
      9 N          14.8770   39.7400   10.0309 N.ar    1  UNL1       -0.2772
     10 BR         10.9020   41.9537    9.0751 Br      1  UNL1       -0.0488
     11 C          17.9778   37.6460   10.1973 C.2     1  UNL1        0.2438
     12 O          17.7052   36.8422   11.1288 O.2     1  UNL1       -0.2734
     13 N          17.1482   38.7910    9.9473 N.am    1  UNL1       -0.2681
     14 H          17.4754   39.4674    9.3112 H       1  UNL1        0.1563
     15 CL         18.8291   36.1058    8.1750 Cl      1  UNL1       -0.1033
     16 C          19.1818   37.3984    9.3461 C.3     1  UNL1        0.1797
@<TRIPOS>BOND
     1    16    15    1
     2    16    11    1
     3    11    13   am
     4     2     8   ar
     5     3     4   ar
     6     5    10    1
     7     5     6   ar
     8     7     9   ar
     9    13     1    1
    10     9     1   ar
    11     9     3   ar
    12    11    12    2
    13     1     2   ar
    14     3     8   ar
    15     4     5   ar
    16     6     7   ar
    17    13    14    1
@<TRIPOS>MOLECULE
Molport-053-335-138
 16 17 0 0 0
SMALL
GASTEIGER

@<TRIPOS>ATOM
      1 C           7.3183   42.7411    7.6938 C.ar    1  UNL1        0.1396
      2 C           6.8293   43.8538    7.0237 C.ar    1  UNL1        0.1335
      3 C           5.4260   43.2949    8.5219 C.ar    1  UNL1        0.1493
      4 C           4.3143   43.2377    9.3603 C.ar    1  UNL1        0.0441
      5 C           4.2770   42.2204   10.3286 C.ar    1  UNL1        0.0391
      6 C           5.3380   41.2992   10.4312 C.ar    1  UNL1        0.0259
      7 C           6.4328   41.4048    9.5610 C.ar    1  UNL1        0.0831
      8 N           5.6288   44.2040    7.5451 N.ar    1  UNL1       -0.2235
      9 N           6.4277   42.4058    8.6414 N.ar    1  UNL1       -0.2772
     10 BR          2.7820   42.0857   11.5084 Br      1  UNL1       -0.0488
     11 C           9.7091   42.2323    8.3804 C.2     1  UNL1        0.2438
     12 O           9.7024   43.0920    9.3017 O.2     1  UNL1       -0.2734
     13 N           8.5859   42.0920    7.4969 N.am    1  UNL1       -0.2681
     14 H           8.6904   41.5147    6.7063 H       1  UNL1        0.1563
     15 CL         11.9654   41.5038    9.6314 Cl      1  UNL1       -0.1033
     16 C          10.9049   41.3509    8.2107 C.3     1  UNL1        0.1797
@<TRIPOS>BOND
     1    16    15    1
     2    16    11    1
     3    11    13   am
     4     2     8   ar
     5     3     4   ar
     6     5    10    1
     7     5     6   ar
     8     7     9   ar
     9    13     1    1
    10     9     1   ar
    11     9     3   ar
    12    11    12    2
    13     1     2   ar
    14     3     8   ar
    15     4     5   ar
    16     6     7   ar
    17    13    14    1
