@<TRIPOS>MOLECULE
MolPort-001-933-564 2070240 CSSS00121702380 LN01138364 MCULE-8829448336 PubChem-1732463 ZINC000002070240 ZINC02070240
 23 24 0 0 0
SMALL
GASTEIGER

@<TRIPOS>ATOM
      1 C           9.0942   41.3359    6.2935 C.ar    1  UNL1        0.1123
      2 C          11.4618   41.5006    6.5855 C.ar    1  UNL1        0.1880
      3 N           9.7879   41.0704    5.1651 N.ar    1  UNL1       -0.1440
      4 N          11.1068   41.1595    5.3271 N.ar    1  UNL1       -0.1256
      5 S          10.1207   41.7140    7.5777 S.2     1  UNL1       -0.0347
      6 C          13.6565   42.7811    6.7071 C.2     1  UNL1        0.2506
      7 N          12.8131   41.6655    7.0262 N.am    1  UNL1       -0.2592
      8 O          13.2151   43.7143    5.9837 O.2     1  UNL1       -0.2698
      9 H          13.1943   40.9570    7.5935 H       1  UNL1        0.1571
     10 C          15.0445   42.8211    7.2360 C.ar    1  UNL1        0.0498
     11 C          15.9764   43.8438    6.9183 C.ar    1  UNL1       -0.0175
     12 C          15.6511   44.9862    6.0161 C.3     1  UNL1        0.0312
     13 C          17.2654   43.8049    7.4610 C.ar    1  UNL1       -0.0041
     14 C          17.6472   42.7688    8.3137 C.ar    1  UNL1       -0.0003
     15 C          16.7395   41.7600    8.6318 C.ar    1  UNL1        0.0001
     16 C          15.4506   41.7880    8.0967 C.ar    1  UNL1        0.0042
     17 C           7.6073   41.3217    6.3624 C.3     1  UNL1        0.0545
     18 C           7.0646   42.7330    6.2197 C.3     1  UNL1        0.0069
     19 C           6.6794   43.2963    7.5789 C.3     1  UNL1        0.0004
     20 C           5.6331   44.3991    7.4592 C.3     1  UNL1        0.0000
     21 C           4.4180   44.1083    8.3263 C.3     1  UNL1        0.0000
     22 C           3.3089   42.2976    9.5976 C.3     1  UNL1        0.0000
     23 C           4.6436   42.8585    9.1557 C.3     1  UNL1        0.0000
@<TRIPOS>BOND
     1    22    23    1
     2    23    21    1
     3    21    20    1
     4    20    19    1
     5    19    18    1
     6    18    17    1
     7    17     1    1
     8     1     5   ar
     9     2     7    1
    10     2     5   ar
    11     6    10    1
    12    11    13   ar
    13    12    11    1
    14    14    15   ar
    15    16    10   ar
    16     3     4   ar
    17     7     6   am
    18     1     3   ar
    19     2     4   ar
    20     6     8    2
    21    10    11   ar
    22    13    14   ar
    23    15    16   ar
    24     7     9    1
@<TRIPOS>MOLECULE
MolPort-001-933-564 2070240 CSSS00121702380 LN01138364 MCULE-8829448336 PubChem-1732463 ZINC000002070240 ZINC02070240
 23 24 0 0 0
SMALL
GASTEIGER

@<TRIPOS>ATOM
      1 C           9.2632   41.2602    6.4421 C.ar    1  UNL1        0.1123
      2 C          11.6402   41.4467    6.6236 C.ar    1  UNL1        0.1880
      3 N           9.8966   41.1468    5.2543 N.ar    1  UNL1       -0.1440
      4 N          11.2208   41.2481    5.3544 N.ar    1  UNL1       -0.1256
      5 S          10.3537   41.5088    7.7050 S.2     1  UNL1       -0.0347
      6 C          13.8210   42.7492    6.7609 C.2     1  UNL1        0.2506
      7 N          13.0110   41.5912    7.0073 N.am    1  UNL1       -0.2592
      8 O          13.3286   43.7429    6.1617 O.2     1  UNL1       -0.2698
      9 H          13.4319   40.8357    7.4778 H       1  UNL1        0.1571
     10 C          15.2349   42.7610    7.2175 C.ar    1  UNL1        0.0498
     11 C          15.7539   41.8643    8.1881 C.ar    1  UNL1       -0.0175
     12 C          14.9247   40.8152    8.8489 C.3     1  UNL1        0.0312
     13 C          17.0999   41.9444    8.5614 C.ar    1  UNL1       -0.0041
     14 C          17.9412   42.8990    7.9891 C.ar    1  UNL1       -0.0003
     15 C          17.4412   43.7839    7.0353 C.ar    1  UNL1        0.0001
     16 C          16.1001   43.7137    6.6546 C.ar    1  UNL1        0.0042
     17 C           7.7829   41.2020    6.5889 C.3     1  UNL1        0.0545
     18 C           7.3532   41.9419    7.8437 C.3     1  UNL1        0.0069
     19 C           7.6080   43.4340    7.6967 C.3     1  UNL1        0.0004
     20 C           6.4957   44.2636    8.3291 C.3     1  UNL1        0.0000
     21 C           5.2340   44.2397    7.4804 C.3     1  UNL1        0.0000
     22 C           3.7830   43.1476    9.1616 C.3     1  UNL1        0.0000
     23 C           4.0039   44.4072    8.3518 C.3     1  UNL1        0.0000
@<TRIPOS>BOND
     1    22    23    1
     2    23    21    1
     3    21    20    1
     4    20    19    1
     5    19    18    1
     6    18    17    1
     7    17     1    1
     8     1     5   ar
     9     2     7    1
    10     2     5   ar
    11     6    10    1
    12    11    13   ar
    13    12    11    1
    14    14    15   ar
    15    16    10   ar
    16     3     4   ar
    17     7     6   am
    18     1     3   ar
    19     2     4   ar
    20     6     8    2
    21    10    11   ar
    22    13    14   ar
    23    15    16   ar
    24     7     9    1
@<TRIPOS>MOLECULE
MolPort-001-933-564 2070240 CSSS00121702380 LN01138364 MCULE-8829448336 PubChem-1732463 ZINC000002070240 ZINC02070240
 23 24 0 0 0
SMALL
GASTEIGER

@<TRIPOS>ATOM
      1 C          11.0887   41.6784    6.4233 C.ar    1  UNL1        0.1123
      2 C           8.8423   41.6324    7.2413 C.ar    1  UNL1        0.1880
      3 N          10.1658   41.8265    5.4481 N.ar    1  UNL1       -0.1440
      4 N           8.9142   41.8034    5.9028 N.ar    1  UNL1       -0.1256
      5 S          10.3673   41.4969    7.9374 S.2     1  UNL1       -0.0347
      6 C           7.0929   42.6243    8.7992 C.2     1  UNL1        0.2506
      7 N           7.6199   41.5695    7.9823 N.am    1  UNL1       -0.2592
      8 O           7.7225   43.7115    8.9028 O.2     1  UNL1       -0.2698
      9 H           7.0990   40.7359    7.9272 H       1  UNL1        0.1571
     10 C           5.8069   42.4197    9.5149 C.ar    1  UNL1        0.0498
     11 C           5.7110   41.8362   10.8054 C.ar    1  UNL1       -0.0175
     12 C           6.9002   41.3681   11.5746 C.3     1  UNL1        0.0312
     13 C           4.4580   41.6803   11.4082 C.ar    1  UNL1       -0.0041
     14 C           3.2973   42.0929   10.7532 C.ar    1  UNL1       -0.0003
     15 C           3.3810   42.6670    9.4858 C.ar    1  UNL1        0.0001
     16 C           4.6254   42.8279    8.8743 C.ar    1  UNL1        0.0042
     17 C          12.5545   41.6499    6.1652 C.3     1  UNL1        0.0545
     18 C          13.2390   42.7790    6.9158 C.3     1  UNL1        0.0069
     19 C          14.0103   43.6688    5.9534 C.3     1  UNL1        0.0004
     20 C          15.2334   44.2934    6.6161 C.3     1  UNL1        0.0000
     21 C          16.5243   43.7586    6.0156 C.3     1  UNL1        0.0000
     22 C          17.3343   43.7733    8.3540 C.3     1  UNL1        0.0000
     23 C          17.7017   44.0766    6.9172 C.3     1  UNL1        0.0000
@<TRIPOS>BOND
     1    22    23    1
     2    23    21    1
     3    21    20    1
     4    20    19    1
     5    19    18    1
     6    18    17    1
     7    17     1    1
     8     1     5   ar
     9     2     7    1
    10     2     5   ar
    11     6    10    1
    12    11    13   ar
    13    12    11    1
    14    14    15   ar
    15    16    10   ar
    16     3     4   ar
    17     7     6   am
    18     1     3   ar
    19     2     4   ar
    20     6     8    2
    21    10    11   ar
    22    13    14   ar
    23    15    16   ar
    24     7     9    1
@<TRIPOS>MOLECULE
MolPort-001-933-564 2070240 CSSS00121702380 LN01138364 MCULE-8829448336 PubChem-1732463 ZINC000002070240 ZINC02070240
 23 24 0 0 0
SMALL
GASTEIGER

@<TRIPOS>ATOM
      1 C           9.3618   40.9579    6.1732 C.ar    1  UNL1        0.1123
      2 C          11.7146   41.2889    6.4433 C.ar    1  UNL1        0.1880
      3 N          10.0515   40.8322    5.0184 N.ar    1  UNL1       -0.1440
      4 N          11.3623   41.0140    5.1680 N.ar    1  UNL1       -0.1256
      5 S          10.3810   41.3212    7.4675 S.2     1  UNL1       -0.0347
      6 C          13.7709   42.7619    6.7136 C.2     1  UNL1        0.2506
      7 N          13.0573   41.5282    6.8760 N.am    1  UNL1       -0.2592
      8 O          13.2109   43.7409    6.1504 O.2     1  UNL1       -0.2698
      9 H          13.5289   40.7871    7.3205 H       1  UNL1        0.1571
     10 C          15.1660   42.8690    7.2137 C.ar    1  UNL1        0.0498
     11 C          16.0501   43.9200    6.8544 C.ar    1  UNL1       -0.0175
     12 C          15.6622   45.0273    5.9332 C.3     1  UNL1        0.0312
     13 C          17.3497   43.9448    7.3720 C.ar    1  UNL1       -0.0041
     14 C          17.7888   42.9447    8.2401 C.ar    1  UNL1       -0.0003
     15 C          16.9283   41.9086    8.5990 C.ar    1  UNL1        0.0001
     16 C          15.6293   41.8732    8.0892 C.ar    1  UNL1        0.0042
     17 C           7.8822   40.8202    6.2617 C.3     1  UNL1        0.0545
     18 C           7.4533   40.7204    7.7153 C.3     1  UNL1        0.0069
     19 C           6.6734   41.9593    8.1276 C.3     1  UNL1        0.0004
     20 C           6.7109   42.1761    9.6365 C.3     1  UNL1        0.0000
     21 C           8.0231   41.6930   10.2345 C.3     1  UNL1        0.0000
     22 C           9.5947   43.5897   10.4738 C.3     1  UNL1        0.0000
     23 C           8.5819   42.7259   11.1945 C.3     1  UNL1        0.0000
@<TRIPOS>BOND
     1    22    23    1
     2    23    21    1
     3    21    20    1
     4    20    19    1
     5    19    18    1
     6    18    17    1
     7    17     1    1
     8     1     5   ar
     9     2     7    1
    10     2     5   ar
    11     6    10    1
    12    11    13   ar
    13    12    11    1
    14    14    15   ar
    15    16    10   ar
    16     3     4   ar
    17     7     6   am
    18     1     3   ar
    19     2     4   ar
    20     6     8    2
    21    10    11   ar
    22    13    14   ar
    23    15    16   ar
    24     7     9    1
@<TRIPOS>MOLECULE
MolPort-001-933-564 2070240 CSSS00121702380 LN01138364 MCULE-8829448336 PubChem-1732463 ZINC000002070240 ZINC02070240
 23 24 0 0 0
SMALL
GASTEIGER

@<TRIPOS>ATOM
      1 C          10.6074   41.4587    6.3440 C.ar    1  UNL1        0.1123
      2 C           8.4049   41.4416    7.2749 C.ar    1  UNL1        0.1880
      3 N           9.6488   41.7719    5.4451 N.ar    1  UNL1       -0.1440
      4 N           8.4219   41.7649    5.9630 N.ar    1  UNL1       -0.1256
      5 S           9.9508   41.1403    7.8649 S.2     1  UNL1       -0.0347
      6 C           6.8631   42.2697    9.1211 C.2     1  UNL1        0.2506
      7 N           7.2186   41.3598    8.0707 N.am    1  UNL1       -0.2592
      8 O           7.6262   43.2332    9.4011 O.2     1  UNL1       -0.2698
      9 H           6.5967   40.6201    7.8823 H       1  UNL1        0.1571
     10 C           5.5950   42.0629    9.8674 C.ar    1  UNL1        0.0498
     11 C           4.4067   42.7973    9.6146 C.ar    1  UNL1       -0.0175
     12 C           4.3143   43.8558    8.5677 C.3     1  UNL1        0.0312
     13 C           3.2547   42.5385   10.3653 C.ar    1  UNL1       -0.0041
     14 C           3.2603   41.5636   11.3634 C.ar    1  UNL1       -0.0003
     15 C           4.4220   40.8372   11.6192 C.ar    1  UNL1        0.0001
     16 C           5.5775   41.0863   10.8768 C.ar    1  UNL1        0.0042
     17 C          12.0543   41.3794    6.0031 C.3     1  UNL1        0.0545
     18 C          12.8587   42.2748    6.9293 C.3     1  UNL1        0.0069
     19 C          13.9912   42.9481    6.1694 C.3     1  UNL1        0.0004
     20 C          15.2069   43.1863    7.0586 C.3     1  UNL1        0.0000
     21 C          16.0867   44.2989    6.5100 C.3     1  UNL1        0.0000
     22 C          17.9660   43.8128    8.0450 C.3     1  UNL1        0.0000
     23 C          17.5502   43.9090    6.5928 C.3     1  UNL1        0.0000
@<TRIPOS>BOND
     1    22    23    1
     2    23    21    1
     3    21    20    1
     4    20    19    1
     5    19    18    1
     6    18    17    1
     7    17     1    1
     8     1     5   ar
     9     2     7    1
    10     2     5   ar
    11     6    10    1
    12    11    13   ar
    13    12    11    1
    14    14    15   ar
    15    16    10   ar
    16     3     4   ar
    17     7     6   am
    18     1     3   ar
    19     2     4   ar
    20     6     8    2
    21    10    11   ar
    22    13    14   ar
    23    15    16   ar
    24     7     9    1
@<TRIPOS>MOLECULE
MolPort-001-933-564 2070240 CSSS00121702380 LN01138364 MCULE-8829448336 PubChem-1732463 ZINC000002070240 ZINC02070240
 23 24 0 0 0
SMALL
GASTEIGER

@<TRIPOS>ATOM
      1 C           9.1545   40.4269    5.8128 C.ar    1  UNL1        0.1123
      2 C          11.3668   41.3340    5.8463 C.ar    1  UNL1        0.1880
      3 N           9.8399   40.1967    4.6716 N.ar    1  UNL1       -0.1440
      4 N          11.0730   40.6994    4.6900 N.ar    1  UNL1       -0.1256
      5 S          10.0759   41.3002    6.9238 S.2     1  UNL1       -0.0347
      6 C          13.5392   41.5597    7.1506 C.2     1  UNL1        0.2506
      7 N          12.6209   41.9638    6.1252 N.am    1  UNL1       -0.2592
      8 O          13.2614   40.5770    7.8895 O.2     1  UNL1       -0.2698
      9 H          12.8738   42.7359    5.5692 H       1  UNL1        0.1571
     10 C          14.8103   42.3085    7.3279 C.ar    1  UNL1        0.0498
     11 C          15.0957   43.5362    6.6746 C.ar    1  UNL1       -0.0175
     12 C          14.1409   44.1991    5.7399 C.3     1  UNL1        0.0312
     13 C          16.3196   44.1763    6.8983 C.ar    1  UNL1       -0.0041
     14 C          17.2665   43.6200    7.7588 C.ar    1  UNL1       -0.0003
     15 C          16.9956   42.4150    8.4049 C.ar    1  UNL1        0.0001
     16 C          15.7781   41.7671    8.1899 C.ar    1  UNL1        0.0042
     17 C           7.7500   39.9829    6.0275 C.3     1  UNL1        0.0545
     18 C           6.8661   41.1785    6.3373 C.3     1  UNL1        0.0069
     19 C           6.3968   41.1345    7.7833 C.3     1  UNL1        0.0004
     20 C           6.3019   42.5299    8.3908 C.3     1  UNL1        0.0000
     21 C           6.1688   43.5962    7.3146 C.3     1  UNL1        0.0000
     22 C           4.0526   44.0256    8.5238 C.3     1  UNL1        0.0000
     23 C           5.1818   44.6648    7.7442 C.3     1  UNL1        0.0000
@<TRIPOS>BOND
     1    22    23    1
     2    23    21    1
     3    21    20    1
     4    20    19    1
     5    19    18    1
     6    18    17    1
     7    17     1    1
     8     1     5   ar
     9     2     7    1
    10     2     5   ar
    11     6    10    1
    12    11    13   ar
    13    12    11    1
    14    14    15   ar
    15    16    10   ar
    16     3     4   ar
    17     7     6   am
    18     1     3   ar
    19     2     4   ar
    20     6     8    2
    21    10    11   ar
    22    13    14   ar
    23    15    16   ar
    24     7     9    1
@<TRIPOS>MOLECULE
MolPort-001-933-564 2070240 CSSS00121702380 LN01138364 MCULE-8829448336 PubChem-1732463 ZINC000002070240 ZINC02070240
 23 24 0 0 0
SMALL
GASTEIGER

@<TRIPOS>ATOM
      1 C           2.8318   41.8830   11.6200 C.ar    1  UNL1        0.1123
      2 C           4.1965   41.6653    9.6686 C.ar    1  UNL1        0.1880
      3 N           2.2253   42.3241   10.4963 N.ar    1  UNL1       -0.1440
      4 N           2.9836   42.2012    9.4084 N.ar    1  UNL1       -0.1256
      5 S           4.3874   41.3131   11.3020 S.2     1  UNL1       -0.0347
      6 C           6.6033   41.2693    8.9460 C.2     1  UNL1        0.2506
      7 N           5.2027   41.4273    8.6795 N.am    1  UNL1       -0.2592
      8 O           7.0278   41.3383   10.1309 O.2     1  UNL1       -0.2698
      9 H           4.9104   41.3670    7.7413 H       1  UNL1        0.1571
     10 C           7.5378   41.0257    7.8169 C.ar    1  UNL1        0.0498
     11 C           8.7631   41.7224    7.6478 C.ar    1  UNL1       -0.0175
     12 C           9.2355   42.7745    8.5938 C.3     1  UNL1        0.0312
     13 C           9.5855   41.4304    6.5541 C.ar    1  UNL1       -0.0041
     14 C           9.2139   40.4590    5.6241 C.ar    1  UNL1       -0.0003
     15 C           8.0128   39.7695    5.7813 C.ar    1  UNL1        0.0001
     16 C           7.1841   40.0519    6.8684 C.ar    1  UNL1        0.0042
     17 C           2.1976   41.9337   12.9658 C.3     1  UNL1        0.0545
     18 C           0.9119   42.7400   12.9071 C.3     1  UNL1        0.0069
     19 C          -0.0267   42.3299   14.0314 C.3     1  UNL1        0.0004
     20 C           0.5134   42.7386   15.3976 C.3     1  UNL1        0.0000
     21 C          -0.6131   43.0797   16.3607 C.3     1  UNL1        0.0000
     22 C          -2.0558   41.4048   17.4733 C.3     1  UNL1        0.0000
     23 C          -1.7795   42.1285   16.1728 C.3     1  UNL1        0.0000
@<TRIPOS>BOND
     1    22    23    1
     2    23    21    1
     3    21    20    1
     4    20    19    1
     5    19    18    1
     6    18    17    1
     7    17     1    1
     8     1     5   ar
     9     2     7    1
    10     2     5   ar
    11     6    10    1
    12    11    13   ar
    13    12    11    1
    14    14    15   ar
    15    16    10   ar
    16     3     4   ar
    17     7     6   am
    18     1     3   ar
    19     2     4   ar
    20     6     8    2
    21    10    11   ar
    22    13    14   ar
    23    15    16   ar
    24     7     9    1
@<TRIPOS>MOLECULE
MolPort-001-933-564 2070240 CSSS00121702380 LN01138364 MCULE-8829448336 PubChem-1732463 ZINC000002070240 ZINC02070240
 23 24 0 0 0
SMALL
GASTEIGER

@<TRIPOS>ATOM
      1 C           8.2426   40.5026    6.0870 C.ar    1  UNL1        0.1123
      2 C          10.3776   41.5289    5.7613 C.ar    1  UNL1        0.1880
      3 N           8.7781   40.2403    4.8748 N.ar    1  UNL1       -0.1440
      4 N           9.9684   40.8095    4.6931 N.ar    1  UNL1       -0.1256
      5 S           9.2512   41.4912    7.0095 S.2     1  UNL1       -0.0347
      6 C          12.7711   41.8261    6.5702 C.2     1  UNL1        0.2506
      7 N          11.6164   42.2418    5.8274 N.am    1  UNL1       -0.2592
      8 O          12.7381   40.7542    7.2328 O.2     1  UNL1       -0.2698
      9 H          11.6816   43.0847    5.3230 H       1  UNL1        0.1571
     10 C          13.9949   42.6685    6.5481 C.ar    1  UNL1        0.0498
     11 C          15.1203   42.4398    7.3827 C.ar    1  UNL1       -0.0175
     12 C          15.1848   41.3238    8.3702 C.3     1  UNL1        0.0312
     13 C          16.2337   43.2828    7.2973 C.ar    1  UNL1       -0.0041
     14 C          16.2509   44.3497    6.3984 C.ar    1  UNL1       -0.0003
     15 C          15.1508   44.5825    5.5747 C.ar    1  UNL1        0.0001
     16 C          14.0343   43.7483    5.6507 C.ar    1  UNL1        0.0042
     17 C           6.9111   39.9969    6.5200 C.3     1  UNL1        0.0545
     18 C           6.1476   41.0915    7.2452 C.3     1  UNL1        0.0069
     19 C           6.5354   41.1281    8.7154 C.3     1  UNL1        0.0004
     20 C           5.6160   42.0394    9.5212 C.3     1  UNL1        0.0000
     21 C           5.0785   41.3339   10.7566 C.3     1  UNL1        0.0000
     22 C           2.9022   41.3144    9.5784 C.3     1  UNL1        0.0000
     23 C           3.8682   40.4908   10.4030 C.3     1  UNL1        0.0000
@<TRIPOS>BOND
     1    22    23    1
     2    23    21    1
     3    21    20    1
     4    20    19    1
     5    19    18    1
     6    18    17    1
     7    17     1    1
     8     1     5   ar
     9     2     7    1
    10     2     5   ar
    11     6    10    1
    12    11    13   ar
    13    12    11    1
    14    14    15   ar
    15    16    10   ar
    16     3     4   ar
    17     7     6   am
    18     1     3   ar
    19     2     4   ar
    20     6     8    2
    21    10    11   ar
    22    13    14   ar
    23    15    16   ar
    24     7     9    1
@<TRIPOS>MOLECULE
MolPort-001-933-564 2070240 CSSS00121702380 LN01138364 MCULE-8829448336 PubChem-1732463 ZINC000002070240 ZINC02070240
 23 24 0 0 0
SMALL
GASTEIGER

@<TRIPOS>ATOM
      1 C           9.6977   40.4347    8.0500 C.ar    1  UNL1        0.1123
      2 C          12.0365   40.9227    8.1483 C.ar    1  UNL1        0.1880
      3 N          10.4738   39.3319    7.9692 N.ar    1  UNL1       -0.1440
      4 N          11.7766   39.6022    8.0262 N.ar    1  UNL1       -0.1256
      5 S          10.6254   41.8367    8.1900 S.2     1  UNL1       -0.0347
      6 C          14.0392   42.1351    7.1529 C.2     1  UNL1        0.2506
      7 N          13.3509   41.4824    8.2290 N.am    1  UNL1       -0.2592
      8 O          13.4811   42.2476    6.0282 O.2     1  UNL1       -0.2698
      9 H          13.8202   41.4142    9.0917 H       1  UNL1        0.1571
     10 C          15.4061   42.6715    7.3800 C.ar    1  UNL1        0.0498
     11 C          15.8901   43.8650    6.7829 C.ar    1  UNL1       -0.0175
     12 C          15.0681   44.7031    5.8627 C.3     1  UNL1        0.0312
     13 C          17.1927   44.2996    7.0511 C.ar    1  UNL1       -0.0041
     14 C          18.0248   43.5708    7.9016 C.ar    1  UNL1       -0.0003
     15 C          17.5588   42.3977    8.4927 C.ar    1  UNL1        0.0001
     16 C          16.2611   41.9541    8.2328 C.ar    1  UNL1        0.0042
     17 C           8.2109   40.3952    7.9884 C.3     1  UNL1        0.0545
     18 C           7.6371   41.7540    8.3506 C.3     1  UNL1        0.0069
     19 C           6.1353   41.7797    8.1115 C.3     1  UNL1        0.0004
     20 C           5.4001   42.5418    9.2087 C.3     1  UNL1        0.0000
     21 C           5.2792   41.7108   10.4767 C.3     1  UNL1        0.0000
     22 C           3.9384   40.0234   11.6931 C.3     1  UNL1        0.0000
     23 C           4.0863   40.7781   10.3893 C.3     1  UNL1        0.0000
@<TRIPOS>BOND
     1    22    23    1
     2    23    21    1
     3    21    20    1
     4    20    19    1
     5    19    18    1
     6    18    17    1
     7    17     1    1
     8     1     5   ar
     9     2     7    1
    10     2     5   ar
    11     6    10    1
    12    11    13   ar
    13    12    11    1
    14    14    15   ar
    15    16    10   ar
    16     3     4   ar
    17     7     6   am
    18     1     3   ar
    19     2     4   ar
    20     6     8    2
    21    10    11   ar
    22    13    14   ar
    23    15    16   ar
    24     7     9    1
@<TRIPOS>MOLECULE
MolPort-001-933-564 2070240 CSSS00121702380 LN01138364 MCULE-8829448336 PubChem-1732463 ZINC000002070240 ZINC02070240
 23 24 0 0 0
SMALL
GASTEIGER

@<TRIPOS>ATOM
      1 C           9.6477   40.2864    7.8163 C.ar    1  UNL1        0.1123
      2 C          11.9933   40.7061    7.6176 C.ar    1  UNL1        0.1880
      3 N          10.4029   39.4313    8.5396 N.ar    1  UNL1       -0.1440
      4 N          11.7095   39.6655    8.4316 N.ar    1  UNL1       -0.1256
      5 S          10.6002   41.3980    6.9779 S.2     1  UNL1       -0.0347
      6 C          13.7814   42.5121    7.5038 C.2     1  UNL1        0.2506
      7 N          13.3168   41.1664    7.3276 N.am    1  UNL1       -0.2592
      8 O          12.9965   43.3936    7.9465 O.2     1  UNL1       -0.2698
      9 H          13.9596   40.5070    6.9795 H       1  UNL1        0.1571
     10 C          15.1871   42.8493    7.1605 C.ar    1  UNL1        0.0498
     11 C          16.3115   42.3169    7.8445 C.ar    1  UNL1       -0.0175
     12 C          16.1907   41.3602    8.9825 C.3     1  UNL1        0.0312
     13 C          17.6033   42.6880    7.4558 C.ar    1  UNL1       -0.0041
     14 C          17.8002   43.5788    6.4002 C.ar    1  UNL1       -0.0003
     15 C          16.7028   44.1069    5.7224 C.ar    1  UNL1        0.0001
     16 C          15.4092   43.7441    6.1008 C.ar    1  UNL1        0.0042
     17 C           8.1619   40.2163    7.7567 C.3     1  UNL1        0.0545
     18 C           7.7071   39.9844    6.3262 C.3     1  UNL1        0.0069
     19 C           8.6682   39.0515    5.6056 C.3     1  UNL1        0.0004
     20 C           8.7617   39.3735    4.1181 C.3     1  UNL1        0.0000
     21 C          10.2036   39.5926    3.6869 C.3     1  UNL1        0.0000
     22 C          10.1083   37.1756    3.1638 C.3     1  UNL1        0.0000
     23 C          10.9731   38.2860    3.7211 C.3     1  UNL1        0.0000
@<TRIPOS>BOND
     1    22    23    1
     2    23    21    1
     3    21    20    1
     4    20    19    1
     5    19    18    1
     6    18    17    1
     7    17     1    1
     8     1     5   ar
     9     2     7    1
    10     2     5   ar
    11     6    10    1
    12    11    13   ar
    13    12    11    1
    14    14    15   ar
    15    16    10   ar
    16     3     4   ar
    17     7     6   am
    18     1     3   ar
    19     2     4   ar
    20     6     8    2
    21    10    11   ar
    22    13    14   ar
    23    15    16   ar
    24     7     9    1
