@<TRIPOS>MOLECULE
MolPort-001-980-042 350815 CHEMBL1365918 MCULE-1846993666 PubChem-829078 ZINC000000350815
 25 27 0 0 0
SMALL
GASTEIGER

@<TRIPOS>ATOM
      1 C          12.8597   41.4700    7.8001 C.ar    1  UNL1        0.0906
      2 C          10.4206   40.9279    8.0297 C.ar    1  UNL1        0.0809
      3 C          11.1956   40.4814    9.1070 C.ar    1  UNL1       -0.0001
      4 C          10.6377   39.7198   10.2660 C.3     1  UNL1        0.0325
      5 C          12.5670   40.7679    8.9704 C.ar    1  UNL1        0.0847
      6 S          11.4457   41.6875    6.9258 S.2     1  UNL1       -0.0673
      7 C           8.9487   40.8187    7.8961 C.2     1  UNL1        0.2548
      8 C           8.4751   43.0539    8.9730 C.3     1  UNL1        0.0937
      9 C           7.4919   44.0943    8.4327 C.3     1  UNL1        0.0216
     10 C           6.0183   43.6979    8.6183 C.3     1  UNL1        0.0035
     11 C           5.8364   42.4146    9.4273 C.3     1  UNL1        0.0216
     12 C           6.6647   41.2886    8.8113 C.3     1  UNL1        0.0937
     13 N           8.0536   41.7056    8.5894 N.am    1  UNL1       -0.2757
     14 O           8.4689   39.9095    7.1656 O.2     1  UNL1       -0.2694
     15 C          14.5108   43.1704    6.8774 C.2     1  UNL1        0.2846
     16 N          14.1524   41.8561    7.3181 N.am    1  UNL1       -0.2724
     17 O          13.6200   44.0174    6.5996 O.2     1  UNL1       -0.2664
     18 H          14.8501   41.1623    7.2874 H       1  UNL1        0.1557
     19 C          15.9225   43.5198    6.6933 C.ar    1  UNL1        0.1988
     20 C          16.8466   43.6793    7.7042 C.ar    1  UNL1        0.0455
     21 C          18.0261   44.0030    7.0568 C.ar    1  UNL1        0.0440
     22 C          17.7425   44.0188    5.7016 C.ar    1  UNL1        0.1798
     23 O          16.4768   43.7255    5.5259 O.2     1  UNL1       -0.4458
     24 C          13.5643   40.2837    9.8931 C.1     1  UNL1        0.1019
     25 N          14.3631   39.8962   10.6356 N.1     1  UNL1       -0.1908
@<TRIPOS>BOND
     1     1    16    1
     2     1     6   ar
     3    15    19    1
     4    19    23   ar
     5    20    21   ar
     6    22    23   ar
     7     2     6   ar
     8     2     7    1
     9     3     5   ar
    10     4     3    1
    11     5    24    1
    12     7    13   am
    13     8    13    1
    14     8     9    1
    15     9    10    1
    16    10    11    1
    17    11    12    1
    18    12    13    1
    19    16    15   am
    20    15    17    2
    21    19    20   ar
    22    21    22   ar
    23     2     3   ar
    24     5     1   ar
    25     7    14    2
    26    24    25    3
    27    16    18    1
@<TRIPOS>MOLECULE
MolPort-001-980-042 350815 CHEMBL1365918 MCULE-1846993666 PubChem-829078 ZINC000000350815
 25 27 0 0 0
SMALL
GASTEIGER

@<TRIPOS>ATOM
      1 C          12.9239   41.9293    7.5653 C.ar    1  UNL1        0.0906
      2 C          15.1190   41.2169    8.5504 C.ar    1  UNL1        0.0809
      3 C          15.2283   42.2961    7.6650 C.ar    1  UNL1       -0.0001
      4 C          16.5282   42.9409    7.3054 C.3     1  UNL1        0.0325
      5 C          14.0003   42.6844    7.0969 C.ar    1  UNL1        0.0847
      6 S          13.4950   40.7665    8.6296 S.2     1  UNL1       -0.0673
      7 C          16.2160   40.6066    9.3379 C.2     1  UNL1        0.2548
      8 C          15.2079   38.2906    9.3398 C.3     1  UNL1        0.0937
      9 C          15.9790   37.0008    9.0513 C.3     1  UNL1        0.0216
     10 C          16.9242   36.5853   10.1902 C.3     1  UNL1        0.0035
     11 C          16.7968   37.4669   11.4315 C.3     1  UNL1        0.0216
     12 C          16.9656   38.9356   11.0470 C.3     1  UNL1        0.0937
     13 N          16.0970   39.2975    9.9215 N.am    1  UNL1       -0.2757
     14 O          17.2779   41.2635    9.5145 O.2     1  UNL1       -0.2694
     15 C          10.4211   41.7327    7.9726 C.2     1  UNL1        0.2846
     16 N          11.5565   42.0113    7.1460 N.am    1  UNL1       -0.2724
     17 O          10.5565   41.1001    9.0540 O.2     1  UNL1       -0.2664
     18 H          11.3836   42.2808    6.2150 H       1  UNL1        0.1557
     19 C           9.0816   42.1359    7.5342 C.ar    1  UNL1        0.1988
     20 C           8.4135   41.6353    6.4369 C.ar    1  UNL1        0.0455
     21 C           7.2035   42.3070    6.4233 C.ar    1  UNL1        0.0440
     22 C           7.2161   43.1675    7.5080 C.ar    1  UNL1        0.1798
     23 O           8.3541   43.0356    8.1456 O.2     1  UNL1       -0.4458
     24 C          13.8973   43.6818    6.0600 C.1     1  UNL1        0.1019
     25 N          13.8128   44.4836    5.2296 N.1     1  UNL1       -0.1908
@<TRIPOS>BOND
     1     1    16    1
     2     1     6   ar
     3    15    19    1
     4    19    23   ar
     5    20    21   ar
     6    22    23   ar
     7     2     6   ar
     8     2     7    1
     9     3     5   ar
    10     4     3    1
    11     5    24    1
    12     7    13   am
    13     8    13    1
    14     8     9    1
    15     9    10    1
    16    10    11    1
    17    11    12    1
    18    12    13    1
    19    16    15   am
    20    15    17    2
    21    19    20   ar
    22    21    22   ar
    23     2     3   ar
    24     5     1   ar
    25     7    14    2
    26    24    25    3
    27    16    18    1
@<TRIPOS>MOLECULE
MolPort-001-980-042 350815 CHEMBL1365918 MCULE-1846993666 PubChem-829078 ZINC000000350815
 25 27 0 0 0
SMALL
GASTEIGER

@<TRIPOS>ATOM
      1 C          13.0427   41.4865    7.8956 C.ar    1  UNL1        0.0906
      2 C          11.0231   40.2320    7.0936 C.ar    1  UNL1        0.0809
      3 C          11.4706   39.8217    8.3553 C.ar    1  UNL1       -0.0001
      4 C          10.8364   38.7169    9.1374 C.3     1  UNL1        0.0325
      5 C          12.6150   40.5115    8.7980 C.ar    1  UNL1        0.0847
      6 S          12.0454   41.4582    6.5481 S.2     1  UNL1       -0.0673
      7 C           9.8258   39.7333    6.3765 C.2     1  UNL1        0.2548
      8 C           8.2980   41.5548    7.2300 C.3     1  UNL1        0.0937
      9 C           7.3116   42.3446    6.3672 C.3     1  UNL1        0.0216
     10 C           6.0851   41.5251    5.9341 C.3     1  UNL1        0.0035
     11 C           6.0338   40.1358    6.5679 C.3     1  UNL1        0.0216
     12 C           7.3446   39.3958    6.3079 C.3     1  UNL1        0.0937
     13 N           8.5042   40.2164    6.6742 N.am    1  UNL1       -0.2757
     14 O           9.9709   38.8469    5.4914 O.2     1  UNL1       -0.2694
     15 C          15.5561   41.8417    8.0545 C.2     1  UNL1        0.2846
     16 N          14.2064   42.3159    7.9983 N.am    1  UNL1       -0.2724
     17 O          15.7998   40.6343    8.3206 O.2     1  UNL1       -0.2664
     18 H          14.0667   43.2898    8.0332 H       1  UNL1        0.1557
     19 C          16.6679   42.7765    7.8564 C.ar    1  UNL1        0.1988
     20 C          17.5743   43.1592    8.8225 C.ar    1  UNL1        0.0455
     21 C          18.4245   44.0417    8.1793 C.ar    1  UNL1        0.0440
     22 C          17.9808   44.1367    6.8711 C.ar    1  UNL1        0.1798
     23 O          16.9306   43.3668    6.7184 O.2     1  UNL1       -0.4458
     24 C          13.3236   40.1605   10.0044 C.1     1  UNL1        0.1019
     25 N          13.8905   39.8806   10.9738 N.1     1  UNL1       -0.1908
@<TRIPOS>BOND
     1     1    16    1
     2     1     6   ar
     3    15    19    1
     4    19    23   ar
     5    20    21   ar
     6    22    23   ar
     7     2     6   ar
     8     2     7    1
     9     3     5   ar
    10     4     3    1
    11     5    24    1
    12     7    13   am
    13     8    13    1
    14     8     9    1
    15     9    10    1
    16    10    11    1
    17    11    12    1
    18    12    13    1
    19    16    15   am
    20    15    17    2
    21    19    20   ar
    22    21    22   ar
    23     2     3   ar
    24     5     1   ar
    25     7    14    2
    26    24    25    3
    27    16    18    1
@<TRIPOS>MOLECULE
MolPort-001-980-042 350815 CHEMBL1365918 MCULE-1846993666 PubChem-829078 ZINC000000350815
 25 27 0 0 0
SMALL
GASTEIGER

@<TRIPOS>ATOM
      1 C          10.5710   41.1270   10.9012 C.ar    1  UNL1        0.0906
      2 C           8.2839   41.9284   10.2510 C.ar    1  UNL1        0.0809
      3 C           8.5054   41.9339   11.6336 C.ar    1  UNL1       -0.0001
      4 C           7.4709   42.3384   12.6340 C.3     1  UNL1        0.0325
      5 C           9.7813   41.4663   12.0008 C.ar    1  UNL1        0.0847
      6 S           9.6816   41.3569    9.4986 S.2     1  UNL1       -0.0673
      7 C           7.0659   42.3993    9.5503 C.2     1  UNL1        0.2548
      8 C           5.4772   41.0064   10.9345 C.3     1  UNL1        0.0937
      9 C           4.1698   41.5170   11.5438 C.3     1  UNL1        0.0216
     10 C           3.0588   41.7443   10.5058 C.3     1  UNL1        0.0035
     11 C           3.4426   41.2826    9.1009 C.3     1  UNL1        0.0216
     12 C           4.7637   41.9258    8.6837 C.3     1  UNL1        0.0937
     13 N           5.7943   41.7472    9.7124 N.am    1  UNL1       -0.2757
     14 O           7.1533   43.3910    8.7762 O.2     1  UNL1       -0.2694
     15 C          12.5489   39.9797    9.7874 C.2     1  UNL1        0.2846
     16 N          11.8848   40.5559   10.9174 N.am    1  UNL1       -0.2724
     17 O          11.8983   39.6628    8.7557 O.2     1  UNL1       -0.2664
     18 H          12.3698   40.5599   11.7741 H       1  UNL1        0.1557
     19 C          13.9873   39.7033    9.8478 C.ar    1  UNL1        0.1988
     20 C          14.5624   38.5611   10.3635 C.ar    1  UNL1        0.0455
     21 C          15.9245   38.7502   10.2076 C.ar    1  UNL1        0.0440
     22 C          16.0866   39.9888    9.6104 C.ar    1  UNL1        0.1798
     23 O          14.9070   40.5259    9.4120 O.2     1  UNL1       -0.4458
     24 C          10.1750   41.2598   13.3730 C.1     1  UNL1        0.1019
     25 N          10.4898   41.0917   14.4740 N.1     1  UNL1       -0.1908
@<TRIPOS>BOND
     1     1    16    1
     2     1     6   ar
     3    15    19    1
     4    19    23   ar
     5    20    21   ar
     6    22    23   ar
     7     2     6   ar
     8     2     7    1
     9     3     5   ar
    10     4     3    1
    11     5    24    1
    12     7    13   am
    13     8    13    1
    14     8     9    1
    15     9    10    1
    16    10    11    1
    17    11    12    1
    18    12    13    1
    19    16    15   am
    20    15    17    2
    21    19    20   ar
    22    21    22   ar
    23     2     3   ar
    24     5     1   ar
    25     7    14    2
    26    24    25    3
    27    16    18    1
@<TRIPOS>MOLECULE
MolPort-001-980-042 350815 CHEMBL1365918 MCULE-1846993666 PubChem-829078 ZINC000000350815
 25 27 0 0 0
SMALL
GASTEIGER

@<TRIPOS>ATOM
      1 C          13.4355   41.0397    8.4965 C.ar    1  UNL1        0.0906
      2 C          10.9698   40.6876    8.8009 C.ar    1  UNL1        0.0809
      3 C          11.7300   39.5320    9.0187 C.ar    1  UNL1       -0.0001
      4 C          11.1345   38.2041    9.3603 C.3     1  UNL1        0.0325
      5 C          13.1116   39.7235    8.8295 C.ar    1  UNL1        0.0847
      6 S          12.0244   41.9389    8.3903 S.2     1  UNL1       -0.0673
      7 C           9.5028   40.8224    8.9615 C.2     1  UNL1        0.2548
      8 C           8.9721   40.1796    6.5770 C.3     1  UNL1        0.0937
      9 C           7.8776   39.1952    6.1595 C.3     1  UNL1        0.0216
     10 C           6.4557   39.7572    6.3196 C.3     1  UNL1        0.0035
     11 C           6.4316   41.2287    6.7298 C.3     1  UNL1        0.0216
     12 C           7.2788   41.4340    7.9841 C.3     1  UNL1        0.0937
     13 N           8.6120   40.8408    7.8324 N.am    1  UNL1       -0.2757
     14 O           9.0253   40.9416   10.1225 O.2     1  UNL1       -0.2694
     15 C          14.9974   42.5171    7.1376 C.2     1  UNL1        0.2846
     16 N          14.7292   41.5604    8.1685 N.am    1  UNL1       -0.2724
     17 O          14.1437   42.7464    6.2395 O.2     1  UNL1       -0.2664
     18 H          15.4952   41.2343    8.6941 H       1  UNL1        0.1557
     19 C          16.2955   43.1965    7.0909 C.ar    1  UNL1        0.1988
     20 C          17.0491   43.5601    8.1868 C.ar    1  UNL1        0.0455
     21 C          18.1754   44.1647    7.6563 C.ar    1  UNL1        0.0440
     22 C          18.0325   44.1289    6.2795 C.ar    1  UNL1        0.1798
     23 O          16.8978   43.5433    5.9821 O.2     1  UNL1       -0.4458
     24 C          14.0651   38.6419    8.8688 C.1     1  UNL1        0.1019
     25 N          14.8282   37.7723    8.8998 N.1     1  UNL1       -0.1908
@<TRIPOS>BOND
     1     1    16    1
     2     1     6   ar
     3    15    19    1
     4    19    23   ar
     5    20    21   ar
     6    22    23   ar
     7     2     6   ar
     8     2     7    1
     9     3     5   ar
    10     4     3    1
    11     5    24    1
    12     7    13   am
    13     8    13    1
    14     8     9    1
    15     9    10    1
    16    10    11    1
    17    11    12    1
    18    12    13    1
    19    16    15   am
    20    15    17    2
    21    19    20   ar
    22    21    22   ar
    23     2     3   ar
    24     5     1   ar
    25     7    14    2
    26    24    25    3
    27    16    18    1
@<TRIPOS>MOLECULE
MolPort-001-980-042 350815 CHEMBL1365918 MCULE-1846993666 PubChem-829078 ZINC000000350815
 25 27 0 0 0
SMALL
GASTEIGER

@<TRIPOS>ATOM
      1 C           8.8690   41.6265    9.5350 C.ar    1  UNL1        0.0906
      2 C          11.2561   40.9559    9.1504 C.ar    1  UNL1        0.0809
      3 C          10.8407   40.8044   10.4790 C.ar    1  UNL1       -0.0001
      4 C          11.7380   40.3279   11.5756 C.3     1  UNL1        0.0325
      5 C           9.5075   41.1984   10.7000 C.ar    1  UNL1        0.0847
      6 S           9.9575   41.5637    8.2613 S.2     1  UNL1       -0.0673
      7 C          12.5796   40.5909    8.5923 C.2     1  UNL1        0.2548
      8 C          13.5813   39.9632   10.8246 C.3     1  UNL1        0.0937
      9 C          14.4075   38.7028   11.0891 C.3     1  UNL1        0.0216
     10 C          15.8165   38.7551   10.4767 C.3     1  UNL1        0.0035
     11 C          16.1519   40.1077    9.8503 C.3     1  UNL1        0.0216
     12 C          15.0701   40.4992    8.8456 C.3     1  UNL1        0.0937
     13 N          13.7298   40.3878    9.4316 N.am    1  UNL1       -0.2757
     14 O          12.7022   40.4721    7.3429 O.2     1  UNL1       -0.2694
     15 C           7.2251   43.5148    9.0871 C.2     1  UNL1        0.2846
     16 N           7.5441   42.1581    9.4148 N.am    1  UNL1       -0.2724
     17 O           8.1003   44.4172    9.1750 O.2     1  UNL1       -0.2664
     18 H           6.7928   41.5411    9.5700 H       1  UNL1        0.1557
     19 C           5.8568   43.8706    8.6994 C.ar    1  UNL1        0.1988
     20 C           5.5120   44.7880    7.7295 C.ar    1  UNL1        0.0455
     21 C           4.1281   44.7878    7.7191 C.ar    1  UNL1        0.0440
     22 C           3.7250   43.8749    8.6789 C.ar    1  UNL1        0.1798
     23 O           4.7861   43.3491    9.2417 O.2     1  UNL1       -0.4458
     24 C           8.9145   41.2541   12.0137 C.1     1  UNL1        0.1019
     25 N           8.4368   41.3005   13.0668 N.1     1  UNL1       -0.1908
@<TRIPOS>BOND
     1     1    16    1
     2     1     6   ar
     3    15    19    1
     4    19    23   ar
     5    20    21   ar
     6    22    23   ar
     7     2     6   ar
     8     2     7    1
     9     3     5   ar
    10     4     3    1
    11     5    24    1
    12     7    13   am
    13     8    13    1
    14     8     9    1
    15     9    10    1
    16    10    11    1
    17    11    12    1
    18    12    13    1
    19    16    15   am
    20    15    17    2
    21    19    20   ar
    22    21    22   ar
    23     2     3   ar
    24     5     1   ar
    25     7    14    2
    26    24    25    3
    27    16    18    1
@<TRIPOS>MOLECULE
MolPort-001-980-042 350815 CHEMBL1365918 MCULE-1846993666 PubChem-829078 ZINC000000350815
 25 27 0 0 0
SMALL
GASTEIGER

@<TRIPOS>ATOM
      1 C          13.1024   39.8672    8.2983 C.ar    1  UNL1        0.0906
      2 C          13.2219   37.5540    9.2633 C.ar    1  UNL1        0.0809
      3 C          11.9167   38.0515    9.1654 C.ar    1  UNL1       -0.0001
      4 C          10.7097   37.2995    9.6262 C.3     1  UNL1        0.0325
      5 C          11.8497   39.3565    8.6421 C.ar    1  UNL1        0.0847
      6 S          14.2778   38.7355    8.6841 S.2     1  UNL1       -0.0673
      7 C          13.6197   36.2049    9.7301 C.2     1  UNL1        0.2548
      8 C          15.3235   35.8451    7.9004 C.3     1  UNL1        0.0937
      9 C          16.7344   35.2934    8.1153 C.3     1  UNL1        0.0216
     10 C          16.7618   33.7890    8.4303 C.3     1  UNL1        0.0035
     11 C          15.3890   33.1263    8.3268 C.3     1  UNL1        0.0216
     12 C          14.3803   33.8797    9.1917 C.3     1  UNL1        0.0937
     13 N          14.4100   35.3204    8.9168 N.am    1  UNL1       -0.2757
     14 O          13.2383   35.8167   10.8677 O.2     1  UNL1       -0.2694
     15 C          14.6964   41.7912    7.8230 C.2     1  UNL1        0.2846
     16 N          13.4017   41.1800    7.8091 N.am    1  UNL1       -0.2724
     17 O          15.6163   41.3254    8.5474 O.2     1  UNL1       -0.2664
     18 H          12.6576   41.7038    7.4334 H       1  UNL1        0.1557
     19 C          14.9417   43.0011    7.0325 C.ar    1  UNL1        0.1988
     20 C          14.1241   43.4842    6.0328 C.ar    1  UNL1        0.0455
     21 C          14.7568   44.6294    5.5815 C.ar    1  UNL1        0.0440
     22 C          15.9117   44.7660    6.3330 C.ar    1  UNL1        0.1798
     23 O          15.9859   43.7745    7.1876 O.2     1  UNL1       -0.4458
     24 C          10.6234   40.1133    8.5789 C.1     1  UNL1        0.1019
     25 N           9.6406   40.7222    8.5265 N.1     1  UNL1       -0.1908
@<TRIPOS>BOND
     1     1    16    1
     2     1     6   ar
     3    15    19    1
     4    19    23   ar
     5    20    21   ar
     6    22    23   ar
     7     2     6   ar
     8     2     7    1
     9     3     5   ar
    10     4     3    1
    11     5    24    1
    12     7    13   am
    13     8    13    1
    14     8     9    1
    15     9    10    1
    16    10    11    1
    17    11    12    1
    18    12    13    1
    19    16    15   am
    20    15    17    2
    21    19    20   ar
    22    21    22   ar
    23     2     3   ar
    24     5     1   ar
    25     7    14    2
    26    24    25    3
    27    16    18    1
@<TRIPOS>MOLECULE
MolPort-001-980-042 350815 CHEMBL1365918 MCULE-1846993666 PubChem-829078 ZINC000000350815
 25 27 0 0 0
SMALL
GASTEIGER

@<TRIPOS>ATOM
      1 C          10.9846   39.9455   10.0313 C.ar    1  UNL1        0.0906
      2 C          13.0597   38.7036   10.7007 C.ar    1  UNL1        0.0809
      3 C          12.2987   38.0381    9.7319 C.ar    1  UNL1       -0.0001
      4 C          12.6598   36.6987    9.1749 C.3     1  UNL1        0.0325
      5 C          11.1244   38.7246    9.3695 C.ar    1  UNL1        0.0847
      6 S          12.2729   40.1456   11.0856 S.2     1  UNL1       -0.0673
      7 C          14.3623   38.2649   11.2546 C.2     1  UNL1        0.2548
      8 C          15.7447   39.4876    9.5299 C.3     1  UNL1        0.0937
      9 C          16.9782   40.3380    9.8405 C.3     1  UNL1        0.0216
     10 C          18.2109   39.5075   10.2330 C.3     1  UNL1        0.0035
     11 C          17.9914   38.0016   10.0976 C.3     1  UNL1        0.0216
     12 C          16.7431   37.5852   10.8732 C.3     1  UNL1        0.0937
     13 N          15.5922   38.4264   10.5266 N.am    1  UNL1       -0.2757
     14 O          14.3884   37.7186   12.3909 O.2     1  UNL1       -0.2694
     15 C           9.5583   41.6645    8.8151 C.2     1  UNL1        0.2846
     16 N           9.8817   40.8563    9.9518 N.am    1  UNL1       -0.2724
     17 O          10.4061   41.8533    7.9020 O.2     1  UNL1       -0.2664
     18 H           9.2995   40.9326   10.7420 H       1  UNL1        0.1557
     19 C           8.2518   42.3246    8.7357 C.ar    1  UNL1        0.1988
     20 C           7.1317   41.9733    9.4590 C.ar    1  UNL1        0.0455
     21 C           6.1549   42.8659    9.0532 C.ar    1  UNL1        0.0440
     22 C           6.7429   43.6966    8.1145 C.ar    1  UNL1        0.1798
     23 O           7.9946   43.3411    7.9528 O.2     1  UNL1       -0.4458
     24 C          10.1274   38.1623    8.4919 C.1     1  UNL1        0.1019
     25 N           9.3254   37.7126    7.7889 N.1     1  UNL1       -0.1908
@<TRIPOS>BOND
     1     1    16    1
     2     1     6   ar
     3    15    19    1
     4    19    23   ar
     5    20    21   ar
     6    22    23   ar
     7     2     6   ar
     8     2     7    1
     9     3     5   ar
    10     4     3    1
    11     5    24    1
    12     7    13   am
    13     8    13    1
    14     8     9    1
    15     9    10    1
    16    10    11    1
    17    11    12    1
    18    12    13    1
    19    16    15   am
    20    15    17    2
    21    19    20   ar
    22    21    22   ar
    23     2     3   ar
    24     5     1   ar
    25     7    14    2
    26    24    25    3
    27    16    18    1
@<TRIPOS>MOLECULE
MolPort-001-980-042 350815 CHEMBL1365918 MCULE-1846993666 PubChem-829078 ZINC000000350815
 25 27 0 0 0
SMALL
GASTEIGER

@<TRIPOS>ATOM
      1 C          10.1912   41.8036    7.9724 C.ar    1  UNL1        0.0906
      2 C           7.9215   42.8328    8.2649 C.ar    1  UNL1        0.0809
      3 C           8.0980   42.2141    7.0212 C.ar    1  UNL1       -0.0001
      4 C           7.0545   42.1988    5.9510 C.3     1  UNL1        0.0325
      5 C           9.3774   41.6531    6.8484 C.ar    1  UNL1        0.0847
      6 S           9.3523   42.6627    9.1426 S.2     1  UNL1       -0.0673
      7 C           6.6816   43.4725    8.7645 C.2     1  UNL1        0.2548
      8 C           5.7978   41.3798    9.8691 C.3     1  UNL1        0.0937
      9 C           5.1998   41.3195   11.2762 C.3     1  UNL1        0.0216
     10 C           3.8040   41.9559   11.3757 C.3     1  UNL1        0.0035
     11 C           3.2426   42.3925   10.0234 C.3     1  UNL1        0.0216
     12 C           4.2433   43.3019    9.3129 C.3     1  UNL1        0.0937
     13 N           5.5816   42.7019    9.2790 N.am    1  UNL1       -0.2757
     14 O           6.5838   44.7290    8.7204 O.2     1  UNL1       -0.2694
     15 C          12.6767   42.0951    7.5187 C.2     1  UNL1        0.2846
     16 N          11.5635   41.4163    8.1104 N.am    1  UNL1       -0.2724
     17 O          12.4999   42.9166    6.5797 O.2     1  UNL1       -0.2664
     18 H          11.7567   40.6197    8.6557 H       1  UNL1        0.1557
     19 C          14.0392   41.7935    7.9680 C.ar    1  UNL1        0.1988
     20 C          14.3848   40.8173    8.8783 C.ar    1  UNL1        0.0455
     21 C          15.7617   40.9062    8.9860 C.ar    1  UNL1        0.0440
     22 C          16.1602   41.9257    8.1381 C.ar    1  UNL1        0.1798
     23 O          15.1030   42.4302    7.5490 O.2     1  UNL1       -0.4458
     24 C           9.8222   41.0864    5.5988 C.1     1  UNL1        0.1019
     25 N          10.1786   40.6341    4.5949 N.1     1  UNL1       -0.1908
@<TRIPOS>BOND
     1     1    16    1
     2     1     6   ar
     3    15    19    1
     4    19    23   ar
     5    20    21   ar
     6    22    23   ar
     7     2     6   ar
     8     2     7    1
     9     3     5   ar
    10     4     3    1
    11     5    24    1
    12     7    13   am
    13     8    13    1
    14     8     9    1
    15     9    10    1
    16    10    11    1
    17    11    12    1
    18    12    13    1
    19    16    15   am
    20    15    17    2
    21    19    20   ar
    22    21    22   ar
    23     2     3   ar
    24     5     1   ar
    25     7    14    2
    26    24    25    3
    27    16    18    1
@<TRIPOS>MOLECULE
MolPort-001-980-042 350815 CHEMBL1365918 MCULE-1846993666 PubChem-829078 ZINC000000350815
 25 27 0 0 0
SMALL
GASTEIGER

@<TRIPOS>ATOM
      1 C          10.0438   42.1937    8.3694 C.ar    1  UNL1        0.0906
      2 C           7.6630   42.9829    8.4431 C.ar    1  UNL1        0.0809
      3 C           8.0030   42.3449    7.2439 C.ar    1  UNL1       -0.0001
      4 C           7.0566   42.1816    6.0984 C.3     1  UNL1        0.0325
      5 C           9.3436   41.9188    7.1937 C.ar    1  UNL1        0.0847
      6 S           9.0282   42.9971    9.4344 S.2     1  UNL1       -0.0673
      7 C           6.3269   43.5025    8.8186 C.2     1  UNL1        0.2548
      8 C           5.6166   41.3995   10.0242 C.3     1  UNL1        0.0937
      9 C           4.9357   41.3642   11.3939 C.3     1  UNL1        0.0216
     10 C           3.4725   41.8347   11.3622 C.3     1  UNL1        0.0035
     11 C           2.9575   42.1078    9.9499 C.3     1  UNL1        0.0216
     12 C           3.8929   43.0798    9.2331 C.3     1  UNL1        0.0937
     13 N           5.2904   42.6429    9.3239 N.am    1  UNL1       -0.2757
     14 O           6.0887   44.7324    8.6739 O.2     1  UNL1       -0.2694
     15 C          11.9500   41.0779    9.6302 C.2     1  UNL1        0.2846
     16 N          11.4334   41.9608    8.6285 N.am    1  UNL1       -0.2724
     17 O          11.2101   40.6655   10.5632 O.2     1  UNL1       -0.2664
     18 H          12.0853   42.4467    8.0734 H       1  UNL1        0.1557
     19 C          13.3642   40.6926    9.6057 C.ar    1  UNL1        0.1988
     20 C          13.9583   39.7724   10.4433 C.ar    1  UNL1        0.0455
     21 C          15.2853   39.7430   10.0513 C.ar    1  UNL1        0.0440
     22 C          15.4096   40.6430    9.0064 C.ar    1  UNL1        0.1798
     23 O          14.2411   41.1891    8.7708 O.2     1  UNL1       -0.4458
     24 C           9.9445   41.3611    6.0069 C.1     1  UNL1        0.1019
     25 N          10.4291   40.9139    5.0558 N.1     1  UNL1       -0.1908
@<TRIPOS>BOND
     1     1    16    1
     2     1     6   ar
     3    15    19    1
     4    19    23   ar
     5    20    21   ar
     6    22    23   ar
     7     2     6   ar
     8     2     7    1
     9     3     5   ar
    10     4     3    1
    11     5    24    1
    12     7    13   am
    13     8    13    1
    14     8     9    1
    15     9    10    1
    16    10    11    1
    17    11    12    1
    18    12    13    1
    19    16    15   am
    20    15    17    2
    21    19    20   ar
    22    21    22   ar
    23     2     3   ar
    24     5     1   ar
    25     7    14    2
    26    24    25    3
    27    16    18    1
