@<TRIPOS>MOLECULE
Molport-053-137-707 MCULE-7939376285
 23 25 0 0 0
SMALL
GASTEIGER

@<TRIPOS>ATOM
      1 C          12.5016   41.6462    6.3952 C.ar    1  UNL1        0.2218
      2 C          10.7928   40.0121    6.2817 C.ar    1  UNL1        0.1031
      3 C          11.3041   39.3831    7.4148 C.ar    1  UNL1        0.0355
      4 C          12.4420   39.9252    8.0215 C.ar    1  UNL1        0.0644
      5 N          11.3961   41.1268    5.7942 N.ar    1  UNL1       -0.2120
      6 N          13.0121   41.0438    7.5018 N.ar    1  UNL1       -0.2179
      7 C          13.0327   39.3064    9.2473 C.3     1  UNL1        0.0564
      8 C          12.6236   40.0611   10.5136 C.3     1  UNL1        0.0087
      9 C          13.2602   39.4301   11.7549 C.3     1  UNL1        0.0178
     10 C          14.6709   38.8922   11.4803 C.3     1  UNL1        0.0722
     11 C          14.5613   39.1667    9.1157 C.3     1  UNL1        0.0781
     12 N          15.2716   39.5715   10.3339 N.3     1  UNL1       -0.2702
     13 C          16.6291   39.0723   10.2113 C.3     1  UNL1        0.1042
     14 C          16.8171   37.8784   11.1258 C.3     1  UNL1        0.1544
     15 O          17.1554   36.7602   10.3653 O.3     1  UNL1       -0.3805
     16 H          16.4455   36.5736    9.7312 H       1  UNL1        0.2105
     17 N          13.1305   42.8292    5.8911 N.pl3   1  UNL1       -0.2628
     18 H          12.6266   43.3622    5.2344 H       1  UNL1        0.1570
     19 C          14.4296   43.3032    6.2606 C.ar    1  UNL1        0.1657
     20 C          16.5300   44.5480    6.5678 C.ar    1  UNL1        0.0588
     21 C          16.4405   43.3354    7.2540 C.ar    1  UNL1        0.1079
     22 N          15.2769   42.6504    7.0817 N.ar    1  UNL1       -0.2224
     23 S          15.0841   44.7458    5.7239 S.2     1  UNL1       -0.0508
@<TRIPOS>BOND
     1     1    17    1
     2     1     6   ar
     3     2     5   ar
     4     3     4   ar
     5     7     4    1
     6     7     8    1
     7     8     9    1
     8     9    10    1
     9    10    12    1
    10    13    12    1
    11    13    14    1
    12    14    15    1
    13    11    12    1
    14    11     7    1
    15    19    23   ar
    16    20    23   ar
    17    21    22   ar
    18    17    19    1
    19     1     5   ar
    20     2     3   ar
    21     4     6   ar
    22    19    22   ar
    23    20    21   ar
    24    17    18    1
    25    15    16    1
@<TRIPOS>MOLECULE
Molport-053-137-707 MCULE-7939376285
 23 25 0 0 0
SMALL
GASTEIGER

@<TRIPOS>ATOM
      1 C          11.9153   41.5695    6.9564 C.ar    1  UNL1        0.2218
      2 C           9.7988   41.1397    7.9253 C.ar    1  UNL1        0.1031
      3 C          10.4076   40.4706    8.9848 C.ar    1  UNL1        0.0355
      4 C          11.8025   40.3666    8.9937 C.ar    1  UNL1        0.0644
      5 N          10.5583   41.6753    6.9350 N.ar    1  UNL1       -0.2120
      6 N          12.5239   40.9199    7.9837 N.ar    1  UNL1       -0.2179
      7 C          12.5183   39.6732   10.1079 C.3     1  UNL1        0.0564
      8 C          14.0044   40.0351   10.1355 C.3     1  UNL1        0.0087
      9 C          14.7258   39.2945   11.2648 C.3     1  UNL1        0.0178
     10 C          14.1704   37.8813   11.4867 C.3     1  UNL1        0.0722
     11 C          12.2861   38.1512   10.0531 C.3     1  UNL1        0.0781
     12 N          13.5166   37.3845   10.2774 N.3     1  UNL1       -0.2702
     13 C          13.1131   36.0165   10.5474 C.3     1  UNL1        0.1042
     14 C          11.6032   35.9434   10.6575 C.3     1  UNL1        0.1544
     15 O          11.2471   34.8353   11.4246 O.3     1  UNL1       -0.3805
     16 H          11.5803   34.0285   11.0015 H       1  UNL1        0.2105
     17 N          12.7183   42.1458    5.9209 N.pl3   1  UNL1       -0.2628
     18 H          12.5161   41.8814    4.9944 H       1  UNL1        0.1570
     19 C          13.7903   43.0737    6.1181 C.ar    1  UNL1        0.1657
     20 C          15.8392   44.2649    6.7803 C.ar    1  UNL1        0.0588
     21 C          14.9853   44.9619    5.9234 C.ar    1  UNL1        0.1079
     22 N          13.8535   44.2992    5.5592 N.ar    1  UNL1       -0.2224
     23 S          15.1271   42.7655    7.0749 S.2     1  UNL1       -0.0508
@<TRIPOS>BOND
     1     1    17    1
     2     1     6   ar
     3     2     5   ar
     4     3     4   ar
     5     7     4    1
     6     7     8    1
     7     8     9    1
     8     9    10    1
     9    10    12    1
    10    13    12    1
    11    13    14    1
    12    14    15    1
    13    11    12    1
    14    11     7    1
    15    19    23   ar
    16    20    23   ar
    17    21    22   ar
    18    17    19    1
    19     1     5   ar
    20     2     3   ar
    21     4     6   ar
    22    19    22   ar
    23    20    21   ar
    24    17    18    1
    25    15    16    1
@<TRIPOS>MOLECULE
Molport-053-137-707 MCULE-7939376285
 23 25 0 0 0
SMALL
GASTEIGER

@<TRIPOS>ATOM
      1 C          13.0490   42.3013    6.6328 C.ar    1  UNL1        0.2218
      2 C          11.0301   41.2875    5.9262 C.ar    1  UNL1        0.1031
      3 C          10.5387   41.3328    7.2290 C.ar    1  UNL1        0.0355
      4 C          11.3507   41.8787    8.2288 C.ar    1  UNL1        0.0644
      5 N          12.2694   41.7701    5.6514 N.ar    1  UNL1       -0.2120
      6 N          12.5833   42.3527    7.9088 N.ar    1  UNL1       -0.2179
      7 C          10.8780   41.9690    9.6440 C.3     1  UNL1        0.0564
      8 C          11.2897   40.7395   10.4560 C.3     1  UNL1        0.0087
      9 C          10.7732   40.8369   11.8940 C.3     1  UNL1        0.0178
     10 C           9.3990   41.5146   11.9780 C.3     1  UNL1        0.0722
     11 C           9.3613   42.2318    9.7058 C.3     1  UNL1        0.0781
     12 N           8.6851   41.4002   10.7076 N.3     1  UNL1       -0.2702
     13 C           7.3686   41.9773   10.9098 C.3     1  UNL1        0.1042
     14 C           6.5856   41.9260    9.6131 C.3     1  UNL1        0.1544
     15 O           5.9099   43.1317    9.4311 O.3     1  UNL1       -0.3805
     16 H           5.3005   43.2758   10.1719 H       1  UNL1        0.2105
     17 N          14.3499   42.8235    6.3425 N.pl3   1  UNL1       -0.2628
     18 H          14.4769   43.2547    5.4666 H       1  UNL1        0.1570
     19 C          15.4817   42.7720    7.2174 C.ar    1  UNL1        0.1657
     20 C          17.5189   43.1985    8.5301 C.ar    1  UNL1        0.0588
     21 C          16.9310   41.9460    8.7168 C.ar    1  UNL1        0.1079
     22 N          15.8041   41.7145    7.9892 N.ar    1  UNL1       -0.2224
     23 S          16.5708   44.0267    7.4088 S.2     1  UNL1       -0.0508
@<TRIPOS>BOND
     1     1    17    1
     2     1     6   ar
     3     2     5   ar
     4     3     4   ar
     5     7     4    1
     6     7     8    1
     7     8     9    1
     8     9    10    1
     9    10    12    1
    10    13    12    1
    11    13    14    1
    12    14    15    1
    13    11    12    1
    14    11     7    1
    15    19    23   ar
    16    20    23   ar
    17    21    22   ar
    18    17    19    1
    19     1     5   ar
    20     2     3   ar
    21     4     6   ar
    22    19    22   ar
    23    20    21   ar
    24    17    18    1
    25    15    16    1
@<TRIPOS>MOLECULE
Molport-053-137-707 MCULE-7939376285
 23 25 0 0 0
SMALL
GASTEIGER

@<TRIPOS>ATOM
      1 C          11.1834   41.6802    7.0272 C.ar    1  UNL1        0.2218
      2 C          10.6867   40.4799    9.0060 C.ar    1  UNL1        0.1031
      3 C           9.3816   40.9672    8.9868 C.ar    1  UNL1        0.0355
      4 C           9.0076   41.8297    7.9510 C.ar    1  UNL1        0.0644
      5 N          11.5604   40.8420    8.0314 N.ar    1  UNL1       -0.2120
      6 N           9.9134   42.1636    6.9947 N.ar    1  UNL1       -0.2179
      7 C           7.6192   42.3769    7.8650 C.3     1  UNL1        0.0564
      8 C           7.5216   43.7691    8.4916 C.3     1  UNL1        0.0087
      9 C           6.0877   44.3011    8.4193 C.3     1  UNL1        0.0178
     10 C           5.0421   43.1921    8.5967 C.3     1  UNL1        0.0722
     11 C           6.5973   41.3915    8.4632 C.3     1  UNL1        0.0781
     12 N           5.6085   42.0552    9.3201 N.3     1  UNL1       -0.2702
     13 C           4.5298   41.1059    9.5258 C.3     1  UNL1        0.1042
     14 C           3.1962   41.8072    9.3616 C.3     1  UNL1        0.1544
     15 O           2.3519   41.0210    8.5791 O.3     1  UNL1       -0.3805
     16 H           2.7545   40.8828    7.7075 H       1  UNL1        0.2105
     17 N          12.0988   42.0515    5.9911 N.pl3   1  UNL1       -0.2628
     18 H          11.8934   41.7462    5.0780 H       1  UNL1        0.1570
     19 C          13.2874   42.8290    6.1700 C.ar    1  UNL1        0.1657
     20 C          15.4780   43.7467    6.8136 C.ar    1  UNL1        0.0588
     21 C          14.7312   44.5288    5.9307 C.ar    1  UNL1        0.1079
     22 N          13.5204   44.0172    5.5768 N.ar    1  UNL1       -0.2224
     23 S          14.5656   42.3684    7.1454 S.2     1  UNL1       -0.0508
@<TRIPOS>BOND
     1     1    17    1
     2     1     6   ar
     3     2     5   ar
     4     3     4   ar
     5     7     4    1
     6     7     8    1
     7     8     9    1
     8     9    10    1
     9    10    12    1
    10    13    12    1
    11    13    14    1
    12    14    15    1
    13    11    12    1
    14    11     7    1
    15    19    23   ar
    16    20    23   ar
    17    21    22   ar
    18    17    19    1
    19     1     5   ar
    20     2     3   ar
    21     4     6   ar
    22    19    22   ar
    23    20    21   ar
    24    17    18    1
    25    15    16    1
@<TRIPOS>MOLECULE
Molport-053-137-707 MCULE-7939376285
 23 25 0 0 0
SMALL
GASTEIGER

@<TRIPOS>ATOM
      1 C          12.8499   41.7442    7.9399 C.ar    1  UNL1        0.2218
      2 C          13.3951   40.2931    9.7288 C.ar    1  UNL1        0.1031
      3 C          12.2072   40.6269   10.3758 C.ar    1  UNL1        0.0355
      4 C          11.3493   41.5452    9.7616 C.ar    1  UNL1        0.0644
      5 N          13.6945   40.8536    8.5285 N.ar    1  UNL1       -0.2120
      6 N          11.6870   42.0796    8.5587 N.ar    1  UNL1       -0.2179
      7 C          10.0536   41.9358   10.3965 C.3     1  UNL1        0.0564
      8 C           9.7355   41.0636   11.6124 C.3     1  UNL1        0.0087
      9 C           8.3926   41.4596   12.2321 C.3     1  UNL1        0.0178
     10 C           7.3646   41.8891   11.1768 C.3     1  UNL1        0.0722
     11 C           8.9103   41.9421    9.3639 C.3     1  UNL1        0.0781
     12 N           7.6870   41.3123    9.8730 N.3     1  UNL1       -0.2702
     13 C           6.6158   41.6886    8.9685 C.3     1  UNL1        0.1042
     14 C           5.2812   41.2901    9.5661 C.3     1  UNL1        0.1544
     15 O           4.4073   40.9209    8.5447 O.3     1  UNL1       -0.3805
     16 H           4.2811   41.6695    7.9409 H       1  UNL1        0.2105
     17 N          13.1570   42.3251    6.6681 N.pl3   1  UNL1       -0.2628
     18 H          12.6434   42.0058    5.8913 H       1  UNL1        0.1570
     19 C          14.1476   43.3307    6.4298 C.ar    1  UNL1        0.1657
     20 C          16.1737   44.7232    6.3245 C.ar    1  UNL1        0.0588
     21 C          15.0578   45.2285    5.6546 C.ar    1  UNL1        0.1079
     22 N          13.9395   44.4549    5.7149 N.ar    1  UNL1       -0.2224
     23 S          15.7154   43.2513    7.0068 S.2     1  UNL1       -0.0508
@<TRIPOS>BOND
     1     1    17    1
     2     1     6   ar
     3     2     5   ar
     4     3     4   ar
     5     7     4    1
     6     7     8    1
     7     8     9    1
     8     9    10    1
     9    10    12    1
    10    13    12    1
    11    13    14    1
    12    14    15    1
    13    11    12    1
    14    11     7    1
    15    19    23   ar
    16    20    23   ar
    17    21    22   ar
    18    17    19    1
    19     1     5   ar
    20     2     3   ar
    21     4     6   ar
    22    19    22   ar
    23    20    21   ar
    24    17    18    1
    25    15    16    1
@<TRIPOS>MOLECULE
Molport-053-137-707 MCULE-7939376285
 23 25 0 0 0
SMALL
GASTEIGER

@<TRIPOS>ATOM
      1 C          15.9203   41.5106    8.5605 C.ar    1  UNL1        0.2218
      2 C          15.1175   42.8858    6.8091 C.ar    1  UNL1        0.1031
      3 C          13.8576   42.2999    6.9120 C.ar    1  UNL1        0.0355
      4 C          13.6646   41.2990    7.8699 C.ar    1  UNL1        0.0644
      5 N          16.1216   42.4841    7.6305 N.ar    1  UNL1       -0.2120
      6 N          14.6965   40.9298    8.6732 N.ar    1  UNL1       -0.2179
      7 C          12.3339   40.6397    8.0406 C.3     1  UNL1        0.0564
      8 C          12.4793   39.1714    8.4446 C.3     1  UNL1        0.0087
      9 C          11.1078   38.5059    8.5873 C.3     1  UNL1        0.0178
     10 C          10.0934   39.0296    7.5619 C.3     1  UNL1        0.0722
     11 C          11.4617   40.8185    6.7834 C.3     1  UNL1        0.0781
     12 N          10.7748   39.5823    6.3929 N.3     1  UNL1       -0.2702
     13 C           9.7443   39.9593    5.4426 C.3     1  UNL1        0.1042
     14 C          10.2665   39.7872    4.0303 C.3     1  UNL1        0.1544
     15 O           9.1958   39.5830    3.1614 O.3     1  UNL1       -0.3805
     16 H           8.7114   38.7857    3.4269 H       1  UNL1        0.2105
     17 N          16.9736   41.0959    9.4368 N.pl3   1  UNL1       -0.2628
     18 H          17.6370   41.7754    9.6966 H       1  UNL1        0.1570
     19 C          17.1443   39.7774    9.9674 C.ar    1  UNL1        0.1657
     20 C          16.9582   37.6220   11.1400 C.ar    1  UNL1        0.0588
     21 C          18.0854   37.7740   10.3303 C.ar    1  UNL1        0.1079
     22 N          18.1841   38.9674    9.6831 N.ar    1  UNL1       -0.2224
     23 S          16.0687   39.0492   11.0209 S.2     1  UNL1       -0.0508
@<TRIPOS>BOND
     1     1    17    1
     2     1     6   ar
     3     2     5   ar
     4     3     4   ar
     5     7     4    1
     6     7     8    1
     7     8     9    1
     8     9    10    1
     9    10    12    1
    10    13    12    1
    11    13    14    1
    12    14    15    1
    13    11    12    1
    14    11     7    1
    15    19    23   ar
    16    20    23   ar
    17    21    22   ar
    18    17    19    1
    19     1     5   ar
    20     2     3   ar
    21     4     6   ar
    22    19    22   ar
    23    20    21   ar
    24    17    18    1
    25    15    16    1
@<TRIPOS>MOLECULE
Molport-053-137-707 MCULE-7939376285
 23 25 0 0 0
SMALL
GASTEIGER

@<TRIPOS>ATOM
      1 C          14.8590   41.4518    8.0161 C.ar    1  UNL1        0.2218
      2 C          14.9257   43.3178    6.5612 C.ar    1  UNL1        0.1031
      3 C          13.5877   43.1193    6.2277 C.ar    1  UNL1        0.0355
      4 C          12.9049   42.0515    6.8196 C.ar    1  UNL1        0.0644
      5 N          15.5352   42.4861    7.4450 N.ar    1  UNL1       -0.2120
      6 N          13.5529   41.2455    7.7010 N.ar    1  UNL1       -0.2179
      7 C          11.4647   41.7917    6.5147 C.3     1  UNL1        0.0564
      8 C          10.6244   41.7063    7.7903 C.3     1  UNL1        0.0087
      9 C           9.1586   41.4122    7.4598 C.3     1  UNL1        0.0178
     10 C           9.0068   40.4756    6.2538 C.3     1  UNL1        0.0722
     11 C          11.3032   40.5469    5.6215 C.3     1  UNL1        0.0781
     12 N          10.2129   39.6715    6.0656 N.3     1  UNL1       -0.2702
     13 C           9.9425   38.7542    4.9737 C.3     1  UNL1        0.1042
     14 C           9.9137   39.5161    3.6638 C.3     1  UNL1        0.1544
     15 O           8.7928   39.1333    2.9289 O.3     1  UNL1       -0.3805
     16 H           8.8341   38.1811    2.7487 H       1  UNL1        0.2105
     17 N          15.4958   40.5828    8.9587 N.pl3   1  UNL1       -0.2628
     18 H          16.4181   40.8034    9.2230 H       1  UNL1        0.1570
     19 C          14.9055   39.4202    9.5497 C.ar    1  UNL1        0.1657
     20 C          13.6535   37.7930   10.9062 C.ar    1  UNL1        0.0588
     21 C          14.4300   37.2531    9.8792 C.ar    1  UNL1        0.1079
     22 N          15.1203   38.1566    9.1310 N.ar    1  UNL1       -0.2224
     23 S          13.8561   39.4658   10.8512 S.2     1  UNL1       -0.0508
@<TRIPOS>BOND
     1     1    17    1
     2     1     6   ar
     3     2     5   ar
     4     3     4   ar
     5     7     4    1
     6     7     8    1
     7     8     9    1
     8     9    10    1
     9    10    12    1
    10    13    12    1
    11    13    14    1
    12    14    15    1
    13    11    12    1
    14    11     7    1
    15    19    23   ar
    16    20    23   ar
    17    21    22   ar
    18    17    19    1
    19     1     5   ar
    20     2     3   ar
    21     4     6   ar
    22    19    22   ar
    23    20    21   ar
    24    17    18    1
    25    15    16    1
@<TRIPOS>MOLECULE
Molport-053-137-707 MCULE-7939376285
 23 25 0 0 0
SMALL
GASTEIGER

@<TRIPOS>ATOM
      1 C           7.7447   42.0636   10.5722 C.ar    1  UNL1        0.2218
      2 C           8.8522   41.3796   12.5493 C.ar    1  UNL1        0.1031
      3 C           9.9484   40.9554   11.8013 C.ar    1  UNL1        0.0355
      4 C           9.9034   41.1023   10.4110 C.ar    1  UNL1        0.0644
      5 N           7.7753   41.9238   11.9259 N.ar    1  UNL1       -0.2120
      6 N           8.8069   41.6548    9.8289 N.ar    1  UNL1       -0.2179
      7 C          11.0516   40.6797    9.5521 C.3     1  UNL1        0.0564
      8 C          12.3626   40.6450   10.3398 C.3     1  UNL1        0.0087
      9 C          13.5308   40.2376    9.4378 C.3     1  UNL1        0.0178
     10 C          13.3874   40.7842    8.0112 C.3     1  UNL1        0.0722
     11 C          11.1496   41.5551    8.2882 C.3     1  UNL1        0.0781
     12 N          12.5267   41.9654    7.9917 N.3     1  UNL1       -0.2702
     13 C          12.5290   42.4671    6.6296 C.3     1  UNL1        0.1042
     14 C          13.7459   43.3439    6.4120 C.3     1  UNL1        0.1544
     15 O          13.5039   44.2192    5.3544 O.3     1  UNL1       -0.3805
     16 H          13.3231   43.7105    4.5485 H       1  UNL1        0.2105
     17 N           6.6165   42.6502    9.9147 N.pl3   1  UNL1       -0.2628
     18 H           6.7641   43.4987    9.4377 H       1  UNL1        0.1570
     19 C           5.2919   42.1079    9.8918 C.ar    1  UNL1        0.1657
     20 C           2.8839   41.6711    9.6341 C.ar    1  UNL1        0.0588
     21 C           3.6320   40.6274   10.1820 C.ar    1  UNL1        0.1079
     22 N           4.9635   40.8730   10.3223 N.ar    1  UNL1       -0.2224
     23 S           3.9548   42.9350    9.3213 S.2     1  UNL1       -0.0508
@<TRIPOS>BOND
     1     1    17    1
     2     1     6   ar
     3     2     5   ar
     4     3     4   ar
     5     7     4    1
     6     7     8    1
     7     8     9    1
     8     9    10    1
     9    10    12    1
    10    13    12    1
    11    13    14    1
    12    14    15    1
    13    11    12    1
    14    11     7    1
    15    19    23   ar
    16    20    23   ar
    17    21    22   ar
    18    17    19    1
    19     1     5   ar
    20     2     3   ar
    21     4     6   ar
    22    19    22   ar
    23    20    21   ar
    24    17    18    1
    25    15    16    1
@<TRIPOS>MOLECULE
Molport-053-137-707 MCULE-7939376285
 23 25 0 0 0
SMALL
GASTEIGER

@<TRIPOS>ATOM
      1 C          12.3419   42.0015    6.4498 C.ar    1  UNL1        0.2218
      2 C          14.6267   42.5213    6.7858 C.ar    1  UNL1        0.1031
      3 C          14.6434   41.7477    7.9444 C.ar    1  UNL1        0.0355
      4 C          13.4635   41.1050    8.3335 C.ar    1  UNL1        0.0644
      5 N          13.4831   42.6341    6.0619 N.ar    1  UNL1       -0.2120
      6 N          12.3427   41.2429    7.5778 N.ar    1  UNL1       -0.2179
      7 C          13.4178   40.2498    9.5587 C.3     1  UNL1        0.0564
      8 C          14.8164   39.8001    9.9855 C.3     1  UNL1        0.0087
      9 C          14.7472   38.9031   11.2243 C.3     1  UNL1        0.0178
     10 C          13.5054   38.0016   11.2259 C.3     1  UNL1        0.0722
     11 C          12.4523   39.0641    9.3710 C.3     1  UNL1        0.0781
     12 N          13.0084   37.8000    9.8661 N.3     1  UNL1       -0.2702
     13 C          11.9027   36.8637    9.9553 C.3     1  UNL1        0.1042
     14 C          12.3752   35.5782   10.6044 C.3     1  UNL1        0.1544
     15 O          11.3198   34.9975   11.3059 O.3     1  UNL1       -0.3805
     16 H          11.0102   35.6110   11.9905 H       1  UNL1        0.2105
     17 N          11.1395   42.1076    5.6803 N.pl3   1  UNL1       -0.2628
     18 H          10.8723   43.0077    5.3841 H       1  UNL1        0.1570
     19 C          10.2925   41.0164    5.3049 C.ar    1  UNL1        0.1657
     20 C           9.2703   38.9958    4.3417 C.ar    1  UNL1        0.0588
     21 C           8.4739   39.7049    5.2428 C.ar    1  UNL1        0.1079
     22 N           9.0433   40.8215    5.7737 N.ar    1  UNL1       -0.2224
     23 S          10.7371   39.8187    4.2256 S.2     1  UNL1       -0.0508
@<TRIPOS>BOND
     1     1    17    1
     2     1     6   ar
     3     2     5   ar
     4     3     4   ar
     5     7     4    1
     6     7     8    1
     7     8     9    1
     8     9    10    1
     9    10    12    1
    10    13    12    1
    11    13    14    1
    12    14    15    1
    13    11    12    1
    14    11     7    1
    15    19    23   ar
    16    20    23   ar
    17    21    22   ar
    18    17    19    1
    19     1     5   ar
    20     2     3   ar
    21     4     6   ar
    22    19    22   ar
    23    20    21   ar
    24    17    18    1
    25    15    16    1
@<TRIPOS>MOLECULE
Molport-053-137-707 MCULE-7939376285
 23 25 0 0 0
SMALL
GASTEIGER

@<TRIPOS>ATOM
      1 C          16.5347   41.4969    8.7279 C.ar    1  UNL1        0.2218
      2 C          15.6791   42.9939    7.1061 C.ar    1  UNL1        0.1031
      3 C          14.4165   42.4170    7.2239 C.ar    1  UNL1        0.0355
      4 C          14.2493   41.3572    8.1216 C.ar    1  UNL1        0.0644
      5 N          16.7108   42.5274    7.8560 N.ar    1  UNL1       -0.2120
      6 N          15.3085   40.9240    8.8543 N.ar    1  UNL1       -0.2179
      7 C          12.9177   40.7034    8.3052 C.3     1  UNL1        0.0564
      8 C          12.0938   41.3964    9.3920 C.3     1  UNL1        0.0087
      9 C          10.7459   40.6963    9.5851 C.3     1  UNL1        0.0178
     10 C          10.8449   39.1756    9.4056 C.3     1  UNL1        0.0722
     11 C          13.0732   39.1921    8.5611 C.3     1  UNL1        0.0781
     12 N          12.2101   38.7121    9.6461 N.3     1  UNL1       -0.2702
     13 C          12.1870   37.2638    9.5517 C.3     1  UNL1        0.1042
     14 C          13.1063   36.6704   10.6005 C.3     1  UNL1        0.1544
     15 O          12.5760   35.4631   11.0527 O.3     1  UNL1       -0.3805
     16 H          11.7008   35.6194   11.4404 H       1  UNL1        0.2105
     17 N          17.6176   41.0134    9.5296 N.pl3   1  UNL1       -0.2628
     18 H          18.2868   41.6715    9.8268 H       1  UNL1        0.1570
     19 C          17.8102   39.6543    9.9358 C.ar    1  UNL1        0.1657
     20 C          17.7281   37.4321   10.9896 C.ar    1  UNL1        0.0588
     21 C          18.6855   37.5898    9.9859 C.ar    1  UNL1        0.1079
     22 N          18.7272   38.8202    9.4053 N.ar    1  UNL1       -0.2224
     23 S          16.9165   38.9028   11.1333 S.2     1  UNL1       -0.0508
@<TRIPOS>BOND
     1     1    17    1
     2     1     6   ar
     3     2     5   ar
     4     3     4   ar
     5     7     4    1
     6     7     8    1
     7     8     9    1
     8     9    10    1
     9    10    12    1
    10    13    12    1
    11    13    14    1
    12    14    15    1
    13    11    12    1
    14    11     7    1
    15    19    23   ar
    16    20    23   ar
    17    21    22   ar
    18    17    19    1
    19     1     5   ar
    20     2     3   ar
    21     4     6   ar
    22    19    22   ar
    23    20    21   ar
    24    17    18    1
    25    15    16    1
