@<TRIPOS>MOLECULE
MolPort-035-706-978 CSSS03437789233 MCULE-4120249812 PubChem-91938303
 30 32 0 0 0
SMALL
GASTEIGER

@<TRIPOS>ATOM
      1 C          14.0308   33.3527    3.0980 C.3     1  UNL1        0.2880
      2 C          12.8608   34.1845    2.5920 C.3     1  UNL1        0.0650
      3 C          14.9926   33.6260    5.4063 C.ar    1  UNL1        0.1542
      4 C          15.7238   34.4241    6.2912 C.ar    1  UNL1        0.0529
      5 C          16.0437   33.9561    7.5707 C.ar    1  UNL1        0.0537
      6 C          15.6195   32.6757    7.9595 C.ar    1  UNL1        0.0162
      7 C          14.8850   31.8765    7.0790 C.ar    1  UNL1        0.0190
      8 C          14.5733   32.3527    5.8034 C.ar    1  UNL1        0.0850
      9 C          13.5071   32.0186    3.5916 C.2     1  UNL1        0.2732
     10 O          14.6810   34.1103    4.1311 O.3     1  UNL1       -0.4618
     11 O          12.8129   31.2917    2.8309 O.2     1  UNL1       -0.2704
     12 N          13.8136   31.5523    4.9056 N.am    1  UNL1       -0.2783
     13 H          13.4954   30.6664    5.1938 H       1  UNL1        0.1551
     14 C          16.2737   35.7050    9.4361 C.2     1  UNL1        0.2496
     15 O          15.0298   35.8071    9.6172 O.2     1  UNL1       -0.2698
     16 N          16.7972   34.8053    8.4468 N.am    1  UNL1       -0.2803
     17 H          17.7772   34.7676    8.3609 H       1  UNL1        0.1552
     18 C          17.1988   36.5151   10.2481 C.ar    1  UNL1        0.0567
     19 C          18.5756   36.2502   10.2339 C.ar    1  UNL1        0.0047
     20 C          19.4512   37.0188   11.0052 C.ar    1  UNL1        0.0033
     21 C          18.9570   38.0590   11.7965 C.ar    1  UNL1        0.0369
     22 C          17.5868   38.3366   11.8222 C.ar    1  UNL1        0.1389
     23 C          16.7114   37.5602   11.0454 C.ar    1  UNL1        0.0414
     24 C          15.9647   39.2710   13.4386 C.3     1  UNL1        0.2525
     25 O          17.1232   39.3836   12.6233 O.3     1  UNL1       -0.4714
     26 C          15.0116   33.1137    1.9822 C.2     1  UNL1        0.3623
     27 O          14.6315   33.1682    0.7787 O.2     1  UNL1       -0.2457
     28 O          16.3306   32.7700    2.2883 O.3     1  UNL1       -0.4458
     29 C          17.6188   33.2553    0.3288 C.3     1  UNL1        0.0513
     30 C          17.1993   32.1948    1.3247 C.3     1  UNL1        0.2087
@<TRIPOS>BOND
     1    29    30    1
     2    30    28    1
     3    26    28    1
     4     1    26    1
     5     1     2    1
     6     1    10    1
     7     1     9    1
     8     3    10    1
     9     4     5   ar
    10     5    16    1
    11    14    18    1
    12    19    20   ar
    13    21    22   ar
    14    22    25    1
    15    24    25    1
    16    23    18   ar
    17     6     7   ar
    18     8    12    1
    19     8     3   ar
    20    16    14   am
    21    12     9   am
    22    26    27    2
    23     3     4   ar
    24     5     6   ar
    25    14    15    2
    26    18    19   ar
    27    20    21   ar
    28    22    23   ar
    29     7     8   ar
    30     9    11    2
    31    16    17    1
    32    12    13    1
@<TRIPOS>MOLECULE
MolPort-035-706-978 CSSS03437789233 MCULE-4120249812 PubChem-91938303
 30 32 0 0 0
SMALL
GASTEIGER

@<TRIPOS>ATOM
      1 C           9.5936   40.3482    7.2739 C.3     1  UNL1        0.2880
      2 C           9.4490   39.9182    8.7269 C.3     1  UNL1        0.0650
      3 C          10.8226   38.9693    5.5661 C.ar    1  UNL1        0.1542
      4 C          12.0505   38.4852    5.1050 C.ar    1  UNL1        0.0529
      5 C          12.1214   37.7425    3.9210 C.ar    1  UNL1        0.0537
      6 C          10.9445   37.4844    3.2008 C.ar    1  UNL1        0.0162
      7 C           9.7147   37.9635    3.6607 C.ar    1  UNL1        0.0190
      8 C           9.6557   38.7059    4.8424 C.ar    1  UNL1        0.0850
      9 C           8.3357   39.9632    6.5208 C.2     1  UNL1        0.2732
     10 O          10.7702   39.7097    6.7523 O.3     1  UNL1       -0.4618
     11 O           7.2093   40.3522    6.9316 O.2     1  UNL1       -0.2704
     12 N           8.4066   39.1850    5.3261 N.am    1  UNL1       -0.2783
     13 H           7.5813   38.9774    4.8312 H       1  UNL1        0.1551
     14 C          14.3274   36.4666    4.2329 C.2     1  UNL1        0.2496
     15 O          14.0526   36.0983    5.4073 O.2     1  UNL1       -0.2698
     16 N          13.4007   37.2663    3.4818 N.am    1  UNL1       -0.2803
     17 H          13.6725   37.5137    2.5685 H       1  UNL1        0.1552
     18 C          15.6103   36.0718    3.6249 C.ar    1  UNL1        0.0567
     19 C          16.3159   36.9677    2.8091 C.ar    1  UNL1        0.0047
     20 C          17.5318   36.5912    2.2327 C.ar    1  UNL1        0.0033
     21 C          18.0522   35.3160    2.4681 C.ar    1  UNL1        0.0369
     22 C          17.3615   34.4105    3.2793 C.ar    1  UNL1        0.1389
     23 C          16.1394   34.7942    3.8553 C.ar    1  UNL1        0.0414
     24 C          18.3522   32.3070    2.4360 C.3     1  UNL1        0.2525
     25 O          17.9079   33.1427    3.4961 O.3     1  UNL1       -0.4714
     26 C           9.7768   41.8396    7.1955 C.2     1  UNL1        0.3623
     27 O          10.2862   42.3647    6.1657 O.2     1  UNL1       -0.2457
     28 O           9.4371   42.6326    8.2943 O.3     1  UNL1       -0.4458
     29 C           8.3372   44.4830    9.3436 C.3     1  UNL1        0.0513
     30 C           8.2090   43.3410    8.3578 C.3     1  UNL1        0.2087
@<TRIPOS>BOND
     1    29    30    1
     2    30    28    1
     3    26    28    1
     4     1    26    1
     5     1     2    1
     6     1    10    1
     7     1     9    1
     8     3    10    1
     9     4     5   ar
    10     5    16    1
    11    14    18    1
    12    19    20   ar
    13    21    22   ar
    14    22    25    1
    15    24    25    1
    16    23    18   ar
    17     6     7   ar
    18     8    12    1
    19     8     3   ar
    20    16    14   am
    21    12     9   am
    22    26    27    2
    23     3     4   ar
    24     5     6   ar
    25    14    15    2
    26    18    19   ar
    27    20    21   ar
    28    22    23   ar
    29     7     8   ar
    30     9    11    2
    31    16    17    1
    32    12    13    1
@<TRIPOS>MOLECULE
MolPort-035-706-978 CSSS03437789233 MCULE-4120249812 PubChem-91938303
 30 32 0 0 0
SMALL
GASTEIGER

@<TRIPOS>ATOM
      1 C          -0.2319   42.8321   14.9794 C.3     1  UNL1        0.2880
      2 C          -0.3969   41.9403   16.2018 C.3     1  UNL1        0.0650
      3 C           1.5287   42.4244   13.2295 C.ar    1  UNL1        0.1542
      4 C           2.8872   42.4375   12.8993 C.ar    1  UNL1        0.0529
      5 C           3.3033   42.1533   11.5938 C.ar    1  UNL1        0.0537
      6 C           2.3417   41.8506   10.6171 C.ar    1  UNL1        0.0162
      7 C           0.9830   41.8328   10.9442 C.ar    1  UNL1        0.0190
      8 C           0.5785   42.1204   12.2499 C.ar    1  UNL1        0.0850
      9 C          -1.2290   42.4036   13.9212 C.2     1  UNL1        0.2732
     10 O           1.1305   42.7104   14.5400 O.3     1  UNL1       -0.4618
     11 O          -2.4575   42.3450   14.1973 O.2     1  UNL1       -0.2704
     12 N          -0.8011   42.0903   12.5958 N.am    1  UNL1       -0.2783
     13 H          -1.4686   41.8505   11.9131 H       1  UNL1        0.1551
     14 C           5.6560   41.1276   11.5270 C.2     1  UNL1        0.2496
     15 O           5.2907   40.0320   12.0337 O.2     1  UNL1       -0.2698
     16 N           4.7059   42.1795   11.2964 N.am    1  UNL1       -0.2803
     17 H           5.0545   43.0063   10.8913 H       1  UNL1        0.1552
     18 C           7.0705   41.3299   11.1666 C.ar    1  UNL1        0.0567
     19 C           7.4348   41.5963    9.8392 C.ar    1  UNL1        0.0047
     20 C           8.7766   41.7871    9.4992 C.ar    1  UNL1        0.0033
     21 C           9.7648   41.7135   10.4842 C.ar    1  UNL1        0.0369
     22 C           9.4188   41.4488   11.8129 C.ar    1  UNL1        0.1389
     23 C           8.0685   41.2573   12.1485 C.ar    1  UNL1        0.0414
     24 C          10.1617   41.1955   14.1583 C.3     1  UNL1        0.2525
     25 O          10.4298   41.3818   12.7752 O.3     1  UNL1       -0.4714
     26 C          -0.4948   44.2664   15.3508 C.2     1  UNL1        0.3623
     27 O          -1.5933   44.8110   15.0468 O.2     1  UNL1       -0.2457
     28 O           0.5084   45.0088   15.9785 O.3     1  UNL1       -0.4458
     29 C           1.6812   46.9902   15.3198 C.3     1  UNL1        0.0513
     30 C           0.4704   46.4265   16.0330 C.3     1  UNL1        0.2087
@<TRIPOS>BOND
     1    29    30    1
     2    30    28    1
     3    26    28    1
     4     1    26    1
     5     1     2    1
     6     1    10    1
     7     1     9    1
     8     3    10    1
     9     4     5   ar
    10     5    16    1
    11    14    18    1
    12    19    20   ar
    13    21    22   ar
    14    22    25    1
    15    24    25    1
    16    23    18   ar
    17     6     7   ar
    18     8    12    1
    19     8     3   ar
    20    16    14   am
    21    12     9   am
    22    26    27    2
    23     3     4   ar
    24     5     6   ar
    25    14    15    2
    26    18    19   ar
    27    20    21   ar
    28    22    23   ar
    29     7     8   ar
    30     9    11    2
    31    16    17    1
    32    12    13    1
@<TRIPOS>MOLECULE
MolPort-035-706-978 CSSS03437789233 MCULE-4120249812 PubChem-91938303
 30 32 0 0 0
SMALL
GASTEIGER

@<TRIPOS>ATOM
      1 C          -0.4165   44.3515   18.0255 C.3     1  UNL1        0.2880
      2 C           0.4575   44.1850   19.2605 C.3     1  UNL1        0.0650
      3 C           0.1822   43.3552   15.7946 C.ar    1  UNL1        0.1542
      4 C           1.0280   43.3804   14.6817 C.ar    1  UNL1        0.0529
      5 C           0.7926   42.5348   13.5917 C.ar    1  UNL1        0.0537
      6 C          -0.3016   41.6563   13.6279 C.ar    1  UNL1        0.0162
      7 C          -1.1472   41.6256   14.7403 C.ar    1  UNL1        0.0190
      8 C          -0.9043   42.4756   15.8218 C.ar    1  UNL1        0.0850
      9 C          -1.5262   43.3198   18.0670 C.2     1  UNL1        0.2732
     10 O           0.4329   44.2071   16.8759 O.3     1  UNL1       -0.4618
     11 O          -2.2830   43.2458   19.0724 O.2     1  UNL1       -0.2704
     12 N          -1.7508   42.4410   16.9647 N.am    1  UNL1       -0.2783
     13 H          -2.5003   41.8034   16.9957 H       1  UNL1        0.1551
     14 C           2.7156   41.6525   12.1372 C.2     1  UNL1        0.2496
     15 O           2.9147   40.6371   12.8582 O.2     1  UNL1       -0.2698
     16 N           1.6827   42.5937   12.4689 N.am    1  UNL1       -0.2803
     17 H           1.5744   43.3605   11.8611 H       1  UNL1        0.1552
     18 C           3.5491   41.8749   10.9426 C.ar    1  UNL1        0.0567
     19 C           4.3688   40.8510   10.4470 C.ar    1  UNL1        0.0047
     20 C           5.1592   41.0640    9.3146 C.ar    1  UNL1        0.0033
     21 C           5.1357   42.3026    8.6684 C.ar    1  UNL1        0.0369
     22 C           4.3239   43.3344    9.1493 C.ar    1  UNL1        0.1389
     23 C           3.5321   43.1147   10.2883 C.ar    1  UNL1        0.0414
     24 C           5.2514   44.8773    7.4533 C.3     1  UNL1        0.2525
     25 O           4.3219   44.5616    8.4809 O.3     1  UNL1       -0.4714
     26 C          -1.0248   45.7277   18.0086 C.2     1  UNL1        0.3623
     27 O          -1.5567   46.1751   16.9537 O.2     1  UNL1       -0.2457
     28 O          -0.9414   46.5301   19.1491 O.3     1  UNL1       -0.4458
     29 C          -2.1750   46.1206   21.1604 C.3     1  UNL1        0.0513
     30 C          -2.0947   46.9211   19.8777 C.3     1  UNL1        0.2087
@<TRIPOS>BOND
     1    29    30    1
     2    30    28    1
     3    26    28    1
     4     1    26    1
     5     1     2    1
     6     1    10    1
     7     1     9    1
     8     3    10    1
     9     4     5   ar
    10     5    16    1
    11    14    18    1
    12    19    20   ar
    13    21    22   ar
    14    22    25    1
    15    24    25    1
    16    23    18   ar
    17     6     7   ar
    18     8    12    1
    19     8     3   ar
    20    16    14   am
    21    12     9   am
    22    26    27    2
    23     3     4   ar
    24     5     6   ar
    25    14    15    2
    26    18    19   ar
    27    20    21   ar
    28    22    23   ar
    29     7     8   ar
    30     9    11    2
    31    16    17    1
    32    12    13    1
@<TRIPOS>MOLECULE
MolPort-035-706-978 CSSS03437789233 MCULE-4120249812 PubChem-91938303
 30 32 0 0 0
SMALL
GASTEIGER

@<TRIPOS>ATOM
      1 C          12.5197   39.7008    8.2099 C.3     1  UNL1        0.2880
      2 C          12.6018   38.1816    8.2550 C.3     1  UNL1        0.0650
      3 C          10.6235   40.9890    9.2460 C.ar    1  UNL1        0.1542
      4 C           9.2699   41.3352    9.1990 C.ar    1  UNL1        0.0529
      5 C           8.7423   42.2625   10.1048 C.ar    1  UNL1        0.0537
      6 C           9.5866   42.8405   11.0658 C.ar    1  UNL1        0.0162
      7 C          10.9396   42.4939   11.1183 C.ar    1  UNL1        0.0190
      8 C          11.4562   41.5692   10.2078 C.ar    1  UNL1        0.0850
      9 C          13.3737   40.2717    9.3245 C.2     1  UNL1        0.2732
     10 O          11.1339   40.0596    8.3330 O.3     1  UNL1       -0.4618
     11 O          14.5890   39.9502    9.4173 O.2     1  UNL1       -0.2704
     12 N          12.8287   41.1991   10.2630 N.am    1  UNL1       -0.2783
     13 H          13.4096   41.5872   10.9567 H       1  UNL1        0.1551
     14 C           6.6427   43.0636    8.8633 C.2     1  UNL1        0.2496
     15 O           7.2426   43.2219    7.7654 O.2     1  UNL1       -0.2698
     16 N           7.3491   42.5917   10.0212 N.am    1  UNL1       -0.2803
     17 H           6.8209   42.4826   10.8448 H       1  UNL1        0.1552
     18 C           5.2032   43.3641    8.9590 C.ar    1  UNL1        0.0567
     19 C           4.3721   42.6034    9.7935 C.ar    1  UNL1        0.0047
     20 C           3.0073   42.8892    9.8823 C.ar    1  UNL1        0.0033
     21 C           2.4627   43.9387    9.1377 C.ar    1  UNL1        0.0369
     22 C           3.2774   44.7073    8.3007 C.ar    1  UNL1        0.1389
     23 C           4.6484   44.4149    8.2150 C.ar    1  UNL1        0.0414
     24 C           1.2986   45.9505    7.4909 C.3     1  UNL1        0.2525
     25 O           2.7034   45.7503    7.5690 O.3     1  UNL1       -0.4714
     26 C          13.0347   40.2039    6.8886 C.2     1  UNL1        0.3623
     27 O          13.8870   41.1356    6.8513 O.2     1  UNL1       -0.2457
     28 O          12.5173   39.6762    5.7031 O.3     1  UNL1       -0.4458
     29 C          10.9686   41.4684    5.3510 C.3     1  UNL1        0.0513
     30 C          11.2031   39.9755    5.2589 C.3     1  UNL1        0.2087
@<TRIPOS>BOND
     1    29    30    1
     2    30    28    1
     3    26    28    1
     4     1    26    1
     5     1     2    1
     6     1    10    1
     7     1     9    1
     8     3    10    1
     9     4     5   ar
    10     5    16    1
    11    14    18    1
    12    19    20   ar
    13    21    22   ar
    14    22    25    1
    15    24    25    1
    16    23    18   ar
    17     6     7   ar
    18     8    12    1
    19     8     3   ar
    20    16    14   am
    21    12     9   am
    22    26    27    2
    23     3     4   ar
    24     5     6   ar
    25    14    15    2
    26    18    19   ar
    27    20    21   ar
    28    22    23   ar
    29     7     8   ar
    30     9    11    2
    31    16    17    1
    32    12    13    1
@<TRIPOS>MOLECULE
MolPort-035-706-978 CSSS03437789233 MCULE-4120249812 PubChem-91938303
 30 32 0 0 0
SMALL
GASTEIGER

@<TRIPOS>ATOM
      1 C          -0.2492   43.7867   15.9034 C.3     1  UNL1        0.2880
      2 C          -0.0181   43.3063   17.3292 C.3     1  UNL1        0.0650
      3 C           1.1780   43.0399   13.9712 C.ar    1  UNL1        0.1542
      4 C           2.4233   43.0899   13.3377 C.ar    1  UNL1        0.0529
      5 C           2.6180   42.4590   12.1038 C.ar    1  UNL1        0.0537
      6 C           1.5494   41.7707   11.5083 C.ar    1  UNL1        0.0162
      7 C           0.3041   41.7153   12.1404 C.ar    1  UNL1        0.0190
      8 C           0.1201   42.3506   13.3707 C.ar    1  UNL1        0.0850
      9 C          -1.3467   42.9504   15.2758 C.2     1  UNL1        0.2732
     10 O           1.0014   43.6758   15.2050 O.3     1  UNL1       -0.4618
     11 O          -2.4693   42.8541   15.8409 O.2     1  UNL1       -0.2704
     12 N          -1.1396   42.2872   14.0287 N.am    1  UNL1       -0.2783
     13 H          -1.8772   41.7798   13.6193 H       1  UNL1        0.1551
     14 C           4.8466   41.4620   11.3095 C.2     1  UNL1        0.2496
     15 O           4.5700   40.2971   11.7057 O.2     1  UNL1       -0.2698
     16 N           3.9101   42.5362   11.4866 N.am    1  UNL1       -0.2803
     17 H           4.1842   43.4193   11.1483 H       1  UNL1        0.1552
     18 C           6.1420   41.7233   10.6576 C.ar    1  UNL1        0.0567
     19 C           7.3430   41.4394   11.3232 C.ar    1  UNL1        0.0047
     20 C           8.5704   41.6887   10.7037 C.ar    1  UNL1        0.0033
     21 C           8.6066   42.2234    9.4133 C.ar    1  UNL1        0.0369
     22 C           7.4183   42.5122    8.7353 C.ar    1  UNL1        0.1389
     23 C           6.1876   42.2602    9.3633 C.ar    1  UNL1        0.0414
     24 C           6.3474   43.5462    6.7601 C.3     1  UNL1        0.2525
     25 O           7.4873   43.0460    7.4457 O.3     1  UNL1       -0.4714
     26 C          -0.6738   45.2302   15.9104 C.2     1  UNL1        0.3623
     27 O          -1.1613   45.7448   16.9560 O.2     1  UNL1       -0.2457
     28 O          -0.5828   45.9792   14.7346 O.3     1  UNL1       -0.4458
     29 C           1.4963   47.1588   14.8783 C.3     1  UNL1        0.0513
     30 C          -0.0042   47.2749   14.7129 C.3     1  UNL1        0.2087
@<TRIPOS>BOND
     1    29    30    1
     2    30    28    1
     3    26    28    1
     4     1    26    1
     5     1     2    1
     6     1    10    1
     7     1     9    1
     8     3    10    1
     9     4     5   ar
    10     5    16    1
    11    14    18    1
    12    19    20   ar
    13    21    22   ar
    14    22    25    1
    15    24    25    1
    16    23    18   ar
    17     6     7   ar
    18     8    12    1
    19     8     3   ar
    20    16    14   am
    21    12     9   am
    22    26    27    2
    23     3     4   ar
    24     5     6   ar
    25    14    15    2
    26    18    19   ar
    27    20    21   ar
    28    22    23   ar
    29     7     8   ar
    30     9    11    2
    31    16    17    1
    32    12    13    1
@<TRIPOS>MOLECULE
MolPort-035-706-978 CSSS03437789233 MCULE-4120249812 PubChem-91938303
 30 32 0 0 0
SMALL
GASTEIGER

@<TRIPOS>ATOM
      1 C          11.0149   41.6098    5.6349 C.3     1  UNL1        0.2880
      2 C          10.8976   41.1463    4.1898 C.3     1  UNL1        0.0650
      3 C          12.0053   40.1715    7.4456 C.ar    1  UNL1        0.1542
      4 C          11.8701   39.0438    8.2608 C.ar    1  UNL1        0.0529
      5 C          12.8200   38.7646    9.2498 C.ar    1  UNL1        0.0537
      6 C          13.9147   39.6278    9.4137 C.ar    1  UNL1        0.0162
      7 C          14.0553   40.7541    8.5981 C.ar    1  UNL1        0.0190
      8 C          13.0999   41.0246    7.6157 C.ar    1  UNL1        0.0850
      9 C          12.2617   42.4600    5.7779 C.2     1  UNL1        0.2732
     10 O          11.0463   40.4350    6.4613 O.3     1  UNL1       -0.4618
     11 O          12.4320   43.4622    5.0326 O.2     1  UNL1       -0.2704
     12 N          13.2424   42.1604    6.7710 N.am    1  UNL1       -0.2783
     13 H          14.0266   42.7468    6.8726 H       1  UNL1        0.1551
     14 C          11.4417   36.8264   10.2169 C.2     1  UNL1        0.2496
     15 O          10.3933   37.1405    9.5903 O.2     1  UNL1       -0.2698
     16 N          12.6429   37.5989   10.0660 N.am    1  UNL1       -0.2803
     17 H          13.4280   37.2960   10.5770 H       1  UNL1        0.1552
     18 C          11.4349   35.6551   11.1111 C.ar    1  UNL1        0.0567
     19 C          12.4273   34.6708   11.0008 C.ar    1  UNL1        0.0047
     20 C          12.4187   33.5604   11.8490 C.ar    1  UNL1        0.0033
     21 C          11.4179   33.4259   12.8147 C.ar    1  UNL1        0.0369
     22 C          10.4209   34.3983   12.9383 C.ar    1  UNL1        0.1389
     23 C          10.4342   35.5119   12.0824 C.ar    1  UNL1        0.0414
     24 C           9.7383   33.9815   15.2787 C.3     1  UNL1        0.2525
     25 O           9.4338   34.2357   13.9140 O.3     1  UNL1       -0.4714
     26 C           9.8125   42.4333    6.0093 C.2     1  UNL1        0.3623
     27 O           8.9201   42.6829    5.1507 O.2     1  UNL1       -0.2457
     28 O           9.7213   42.9716    7.2952 O.3     1  UNL1       -0.4458
     29 C           8.2541   41.2110    7.9899 C.3     1  UNL1        0.0513
     30 C           8.6407   42.6647    8.1625 C.3     1  UNL1        0.2087
@<TRIPOS>BOND
     1    29    30    1
     2    30    28    1
     3    26    28    1
     4     1    26    1
     5     1     2    1
     6     1    10    1
     7     1     9    1
     8     3    10    1
     9     4     5   ar
    10     5    16    1
    11    14    18    1
    12    19    20   ar
    13    21    22   ar
    14    22    25    1
    15    24    25    1
    16    23    18   ar
    17     6     7   ar
    18     8    12    1
    19     8     3   ar
    20    16    14   am
    21    12     9   am
    22    26    27    2
    23     3     4   ar
    24     5     6   ar
    25    14    15    2
    26    18    19   ar
    27    20    21   ar
    28    22    23   ar
    29     7     8   ar
    30     9    11    2
    31    16    17    1
    32    12    13    1
@<TRIPOS>MOLECULE
MolPort-035-706-978 CSSS03437789233 MCULE-4120249812 PubChem-91938303
 30 32 0 0 0
SMALL
GASTEIGER

@<TRIPOS>ATOM
      1 C           4.2561   41.9978    9.8474 C.3     1  UNL1        0.2880
      2 C           3.4394   41.0149    9.0205 C.3     1  UNL1        0.0650
      3 C           6.7695   42.0732    9.7739 C.ar    1  UNL1        0.1542
      4 C           7.9771   41.4477   10.0981 C.ar    1  UNL1        0.0529
      5 C           9.1971   42.0840    9.8432 C.ar    1  UNL1        0.0537
      6 C           9.1971   43.3582    9.2543 C.ar    1  UNL1        0.0162
      7 C           7.9921   43.9851    8.9253 C.ar    1  UNL1        0.0190
      8 C           6.7800   43.3419    9.1863 C.ar    1  UNL1        0.0850
      9 C           4.3028   43.3284    9.1228 C.2     1  UNL1        0.2732
     10 O           5.5589   41.4220   10.0352 O.3     1  UNL1       -0.4618
     11 O           3.2323   43.9008    8.7831 O.2     1  UNL1       -0.2704
     12 N           5.5488   43.9657    8.8415 N.am    1  UNL1       -0.2783
     13 H           5.5562   44.8474    8.4036 H       1  UNL1        0.1551
     14 C          11.6445   41.4127    9.4543 C.2     1  UNL1        0.2496
     15 O          11.7462   42.0634    8.3789 O.2     1  UNL1       -0.2698
     16 N          10.4129   41.4088   10.1929 N.am    1  UNL1       -0.2803
     17 H          10.4021   40.8872   11.0279 H       1  UNL1        0.1552
     18 C          12.8003   40.6505    9.9589 C.ar    1  UNL1        0.0567
     19 C          12.6760   39.8410   11.0969 C.ar    1  UNL1        0.0047
     20 C          13.7734   39.1196   11.5744 C.ar    1  UNL1        0.0033
     21 C          15.0037   39.2017   10.9172 C.ar    1  UNL1        0.0369
     22 C          15.1449   40.0042    9.7809 C.ar    1  UNL1        0.1389
     23 C          14.0386   40.7275    9.3060 C.ar    1  UNL1        0.0414
     24 C          17.6162   39.9326    9.8480 C.3     1  UNL1        0.2525
     25 O          16.3880   40.0652    9.1455 O.3     1  UNL1       -0.4714
     26 C           3.6142   42.1934   11.1942 C.2     1  UNL1        0.3623
     27 O           4.2918   42.0428   12.2496 O.2     1  UNL1       -0.2457
     28 O           2.2493   42.4812   11.2698 O.3     1  UNL1       -0.4458
     29 C           0.9665   42.9564   13.2354 C.3     1  UNL1        0.0513
     30 C           1.4115   41.8936   12.2531 C.3     1  UNL1        0.2087
@<TRIPOS>BOND
     1    29    30    1
     2    30    28    1
     3    26    28    1
     4     1    26    1
     5     1     2    1
     6     1    10    1
     7     1     9    1
     8     3    10    1
     9     4     5   ar
    10     5    16    1
    11    14    18    1
    12    19    20   ar
    13    21    22   ar
    14    22    25    1
    15    24    25    1
    16    23    18   ar
    17     6     7   ar
    18     8    12    1
    19     8     3   ar
    20    16    14   am
    21    12     9   am
    22    26    27    2
    23     3     4   ar
    24     5     6   ar
    25    14    15    2
    26    18    19   ar
    27    20    21   ar
    28    22    23   ar
    29     7     8   ar
    30     9    11    2
    31    16    17    1
    32    12    13    1
@<TRIPOS>MOLECULE
MolPort-035-706-978 CSSS03437789233 MCULE-4120249812 PubChem-91938303
 30 32 0 0 0
SMALL
GASTEIGER

@<TRIPOS>ATOM
      1 C           9.9920   41.4704    7.8695 C.3     1  UNL1        0.2880
      2 C           9.9089   42.7937    8.6171 C.3     1  UNL1        0.0650
      3 C          11.5972   39.6446    8.5161 C.ar    1  UNL1        0.1542
      4 C          12.9246   39.2100    8.5777 C.ar    1  UNL1        0.0529
      5 C          13.2283   37.9158    9.0148 C.ar    1  UNL1        0.0537
      6 C          12.1851   37.0569    9.3951 C.ar    1  UNL1        0.0162
      7 C          10.8572   37.4892    9.3385 C.ar    1  UNL1        0.0190
      8 C          10.5652   38.7822    8.8984 C.ar    1  UNL1        0.0850
      9 C           8.9045   40.5477    8.3829 C.2     1  UNL1        0.2732
     10 O          11.3118   40.9423    8.0772 O.3     1  UNL1       -0.4618
     11 O           7.7014   40.9238    8.3760 O.2     1  UNL1       -0.2704
     12 N           9.2177   39.2361    8.8514 N.am    1  UNL1       -0.2783
     13 H           8.4927   38.6386    9.1455 H       1  UNL1        0.1551
     14 C          15.1051   36.1639    9.0233 C.2     1  UNL1        0.2496
     15 O          14.3148   35.1854    8.9318 O.2     1  UNL1       -0.2698
     16 N          14.6025   37.5086    9.0610 N.am    1  UNL1       -0.2803
     17 H          15.2724   38.2272    9.1254 H       1  UNL1        0.1552
     18 C          16.5577   35.9257    9.0905 C.ar    1  UNL1        0.0567
     19 C          17.1108   34.7513    8.5606 C.ar    1  UNL1        0.0047
     20 C          18.4884   34.5267    8.6261 C.ar    1  UNL1        0.0033
     21 C          19.3240   35.4752    9.2216 C.ar    1  UNL1        0.0369
     22 C          18.7888   36.6518    9.7548 C.ar    1  UNL1        0.1389
     23 C          17.4033   36.8717    9.6868 C.ar    1  UNL1        0.0414
     24 C          19.2814   38.9353   10.5673 C.3     1  UNL1        0.2525
     25 O          19.6504   37.5813   10.3436 O.3     1  UNL1       -0.4714
     26 C           9.7880   41.6992    6.3964 C.2     1  UNL1        0.3623
     27 O           8.7502   42.2881    5.9819 O.2     1  UNL1       -0.2457
     28 O          10.7242   41.2005    5.4872 O.3     1  UNL1       -0.4458
     29 C          12.5240   42.7746    5.6214 C.3     1  UNL1        0.0513
     30 C          12.1212   41.3176    5.7080 C.3     1  UNL1        0.2087
@<TRIPOS>BOND
     1    29    30    1
     2    30    28    1
     3    26    28    1
     4     1    26    1
     5     1     2    1
     6     1    10    1
     7     1     9    1
     8     3    10    1
     9     4     5   ar
    10     5    16    1
    11    14    18    1
    12    19    20   ar
    13    21    22   ar
    14    22    25    1
    15    24    25    1
    16    23    18   ar
    17     6     7   ar
    18     8    12    1
    19     8     3   ar
    20    16    14   am
    21    12     9   am
    22    26    27    2
    23     3     4   ar
    24     5     6   ar
    25    14    15    2
    26    18    19   ar
    27    20    21   ar
    28    22    23   ar
    29     7     8   ar
    30     9    11    2
    31    16    17    1
    32    12    13    1
@<TRIPOS>MOLECULE
MolPort-035-706-978 CSSS03437789233 MCULE-4120249812 PubChem-91938303
 30 32 0 0 0
SMALL
GASTEIGER

@<TRIPOS>ATOM
      1 C           6.9065   41.9530    8.7643 C.3     1  UNL1        0.2880
      2 C           6.3278   41.4973   10.0963 C.3     1  UNL1        0.0650
      3 C           9.2769   41.4665    8.0767 C.ar    1  UNL1        0.1542
      4 C          10.6372   41.7214    8.2749 C.ar    1  UNL1        0.0529
      5 C          11.5972   41.1451    7.4354 C.ar    1  UNL1        0.0537
      6 C          11.1806   40.3037    6.3919 C.ar    1  UNL1        0.0162
      7 C           9.8219   40.0435    6.1930 C.ar    1  UNL1        0.0190
      8 C           8.8720   40.6260    7.0353 C.ar    1  UNL1        0.0850
      9 C           6.5057   40.9614    7.6902 C.2     1  UNL1        0.2732
     10 O           8.3307   42.0507    8.9260 O.3     1  UNL1       -0.4618
     11 O           5.2899   40.6812    7.5108 O.2     1  UNL1       -0.2704
     12 N           7.4877   40.3553    6.8498 N.am    1  UNL1       -0.2783
     13 H           7.2036   39.7426    6.1335 H       1  UNL1        0.1551
     14 C          13.7795   42.4297    7.0123 C.2     1  UNL1        0.2496
     15 O          13.2758   43.1728    6.1266 O.2     1  UNL1       -0.2698
     16 N          12.9818   41.4340    7.6716 N.am    1  UNL1       -0.2803
     17 H          13.4334   40.8923    8.3585 H       1  UNL1        0.1552
     18 C          15.1991   42.5853    7.3755 C.ar    1  UNL1        0.0567
     19 C          15.9405   43.6742    6.8954 C.ar    1  UNL1        0.0047
     20 C          17.2868   43.8196    7.2401 C.ar    1  UNL1        0.0033
     21 C          17.9022   42.8775    8.0684 C.ar    1  UNL1        0.0369
     22 C          17.1774   41.7857    8.5560 C.ar    1  UNL1        0.1389
     23 C          15.8247   41.6444    8.2055 C.ar    1  UNL1        0.0414
     24 C          17.1142   39.8954   10.1497 C.3     1  UNL1        0.2525
     25 O          17.8208   40.8607    9.3825 O.3     1  UNL1       -0.4714
     26 C           6.3654   43.3108    8.4069 C.2     1  UNL1        0.3623
     27 O           6.8873   43.9768    7.4689 O.2     1  UNL1       -0.2457
     28 O           5.3225   43.8552    9.1604 O.3     1  UNL1       -0.4458
     29 C           3.6583   44.9542    7.8347 C.3     1  UNL1        0.0513
     30 C           3.9704   43.7785    8.7362 C.3     1  UNL1        0.2087
@<TRIPOS>BOND
     1    29    30    1
     2    30    28    1
     3    26    28    1
     4     1    26    1
     5     1     2    1
     6     1    10    1
     7     1     9    1
     8     3    10    1
     9     4     5   ar
    10     5    16    1
    11    14    18    1
    12    19    20   ar
    13    21    22   ar
    14    22    25    1
    15    24    25    1
    16    23    18   ar
    17     6     7   ar
    18     8    12    1
    19     8     3   ar
    20    16    14   am
    21    12     9   am
    22    26    27    2
    23     3     4   ar
    24     5     6   ar
    25    14    15    2
    26    18    19   ar
    27    20    21   ar
    28    22    23   ar
    29     7     8   ar
    30     9    11    2
    31    16    17    1
    32    12    13    1
