@<TRIPOS>MOLECULE
MolPort-009-692-502 9122423 CSSS00106925912 GURPVROGVCIAHM-UHFFFAOYSA-N MCULE-7597087955 PubChem-16952737 ZINC000009122423 ZINC09122423
 30 33 0 0 0
SMALL
GASTEIGER

@<TRIPOS>ATOM
      1 C           3.3686   41.9290   11.1216 C.ar    1  UNL1        0.1659
      2 C           5.5809   42.0094   10.7093 C.ar    1  UNL1        0.0923
      3 C           5.0933   42.3115    9.4240 C.ar    1  UNL1        0.0886
      4 N           4.6079   41.8006   11.6404 N.ar    1  UNL1       -0.2238
      5 S           3.4074   42.3138    9.4924 S.2     1  UNL1       -0.0481
      6 C           7.0071   41.8605   11.0746 C.ar    1  UNL1        0.0183
      7 C           7.9793   42.5950   10.3793 C.ar    1  UNL1        0.0015
      8 C           9.3285   42.4993   10.7323 C.ar    1  UNL1        0.0000
      9 C           9.7166   41.6757   11.7919 C.ar    1  UNL1        0.0000
     10 C           8.7551   40.9519   12.5014 C.ar    1  UNL1        0.0000
     11 C           7.4064   41.0489   12.1476 C.ar    1  UNL1        0.0015
     12 C           1.6632   42.6921   12.8434 C.2     1  UNL1        0.2683
     13 N           2.1612   41.7654   11.8713 N.am    1  UNL1       -0.2594
     14 O           2.2996   43.7507   13.0969 O.2     1  UNL1       -0.2681
     15 H           1.6312   40.9524   11.7062 H       1  UNL1        0.1571
     16 C          -0.1013   44.7504   14.3699 C.3     1  UNL1        0.1539
     17 C          -1.3265   41.4282   14.4063 C.ar    1  UNL1        0.0806
     18 C          -2.3340   40.4110   14.8055 C.3     1  UNL1        0.0540
     19 C          -0.1923   41.1711   13.6547 C.ar    1  UNL1        0.0398
     20 C           0.4010   42.4205   13.5597 C.ar    1  UNL1        0.1326
     21 N          -0.3540   43.3268   14.2184 N.ar    1  UNL1       -0.2447
     22 N          -1.4100   42.7291   14.7377 N.ar    1  UNL1       -0.1735
     23 C           5.8705   42.7432    8.2431 C.2     1  UNL1        0.2030
     24 O           5.8506   43.9605    7.9139 O.2     1  UNL1       -0.2860
     25 C           6.6412   41.7848    7.4199 C.ar    1  UNL1        0.0395
     26 C           6.1466   40.4993    7.1488 C.ar    1  UNL1        0.0032
     27 C           6.8930   39.5974    6.3852 C.ar    1  UNL1        0.0001
     28 C           8.1447   39.9707    5.8897 C.ar    1  UNL1        0.0000
     29 C           8.6505   41.2445    6.1597 C.ar    1  UNL1        0.0001
     30 C           7.9033   42.1460    6.9234 C.ar    1  UNL1        0.0032
@<TRIPOS>BOND
     1    16    21    1
     2    17    19   ar
     3    18    17    1
     4    20    12    1
     5    20    21   ar
     6    12    13   am
     7     1     5   ar
     8     2     4   ar
     9     2     6    1
    10     3     5   ar
    11     3    23    1
    12    23    25    1
    13    26    27   ar
    14    28    29   ar
    15    30    25   ar
    16     7     8   ar
    17     9    10   ar
    18    11     6   ar
    19    21    22   ar
    20    13     1    1
    21    17    22   ar
    22    19    20   ar
    23    12    14    2
    24     1     4   ar
    25     2     3   ar
    26    23    24    2
    27    25    26   ar
    28    27    28   ar
    29    29    30   ar
    30     6     7   ar
    31     8     9   ar
    32    10    11   ar
    33    13    15    1
@<TRIPOS>MOLECULE
MolPort-009-692-502 9122423 CSSS00106925912 GURPVROGVCIAHM-UHFFFAOYSA-N MCULE-7597087955 PubChem-16952737 ZINC000009122423 ZINC09122423
 30 33 0 0 0
SMALL
GASTEIGER

@<TRIPOS>ATOM
      1 C           6.2679   41.3608    9.3505 C.ar    1  UNL1        0.1659
      2 C           8.4798   41.0403    9.0758 C.ar    1  UNL1        0.0923
      3 C           8.0095   40.4484    7.8885 C.ar    1  UNL1        0.0886
      4 N           7.4976   41.5427    9.8759 N.ar    1  UNL1       -0.2238
      5 S           6.3273   40.5792    7.8707 S.2     1  UNL1       -0.0481
      6 C           9.8944   41.0968    9.5063 C.ar    1  UNL1        0.0183
      7 C          10.7174   42.1341    9.0429 C.ar    1  UNL1        0.0015
      8 C          12.0462   42.2292    9.4664 C.ar    1  UNL1        0.0000
      9 C          12.5612   41.2931   10.3666 C.ar    1  UNL1        0.0000
     10 C          11.7460   40.2652   10.8467 C.ar    1  UNL1        0.0000
     11 C          10.4174   40.1715   10.4227 C.ar    1  UNL1        0.0015
     12 C           4.4128   41.1277   11.0708 C.2     1  UNL1        0.2683
     13 N           5.0543   41.7900    9.9746 N.am    1  UNL1       -0.2594
     14 O           4.9145   40.0804   11.5623 O.2     1  UNL1       -0.2681
     15 H           4.6266   42.6041    9.6233 H       1  UNL1        0.1571
     16 C           2.4428   43.1166    9.7131 C.3     1  UNL1        0.1539
     17 C           1.4974   42.0757   12.9629 C.ar    1  UNL1        0.0806
     18 C           0.5676   42.0937   14.1223 C.3     1  UNL1        0.0540
     19 C           2.6689   41.3406   12.8952 C.ar    1  UNL1        0.0398
     20 C           3.1587   41.6616   11.6385 C.ar    1  UNL1        0.1326
     21 N           2.3135   42.5256   11.0349 N.ar    1  UNL1       -0.2447
     22 N           1.2972   42.7833   11.8367 N.ar    1  UNL1       -0.1735
     23 C           8.8099   39.9596    6.7461 C.2     1  UNL1        0.2030
     24 O           8.2104   39.5381    5.7197 O.2     1  UNL1       -0.2860
     25 C          10.2887   39.9198    6.7861 C.ar    1  UNL1        0.0395
     26 C          10.9686   38.9347    7.5194 C.ar    1  UNL1        0.0032
     27 C          12.3656   38.9196    7.5639 C.ar    1  UNL1        0.0001
     28 C          13.0965   39.8936    6.8793 C.ar    1  UNL1        0.0000
     29 C          12.4305   40.8836    6.1527 C.ar    1  UNL1        0.0001
     30 C          11.0334   40.8978    6.1087 C.ar    1  UNL1        0.0032
@<TRIPOS>BOND
     1    16    21    1
     2    17    19   ar
     3    18    17    1
     4    20    12    1
     5    20    21   ar
     6    12    13   am
     7     1     5   ar
     8     2     4   ar
     9     2     6    1
    10     3     5   ar
    11     3    23    1
    12    23    25    1
    13    26    27   ar
    14    28    29   ar
    15    30    25   ar
    16     7     8   ar
    17     9    10   ar
    18    11     6   ar
    19    21    22   ar
    20    13     1    1
    21    17    22   ar
    22    19    20   ar
    23    12    14    2
    24     1     4   ar
    25     2     3   ar
    26    23    24    2
    27    25    26   ar
    28    27    28   ar
    29    29    30   ar
    30     6     7   ar
    31     8     9   ar
    32    10    11   ar
    33    13    15    1
@<TRIPOS>MOLECULE
MolPort-009-692-502 9122423 CSSS00106925912 GURPVROGVCIAHM-UHFFFAOYSA-N MCULE-7597087955 PubChem-16952737 ZINC000009122423 ZINC09122423
 30 33 0 0 0
SMALL
GASTEIGER

@<TRIPOS>ATOM
      1 C          10.8574   41.8741    8.2092 C.ar    1  UNL1        0.1659
      2 C          13.0492   42.0518    7.7239 C.ar    1  UNL1        0.0923
      3 C          13.0988   40.9818    8.6369 C.ar    1  UNL1        0.0886
      4 N          11.7950   42.5347    7.4977 N.ar    1  UNL1       -0.2238
      5 S          11.5235   40.6571    9.1469 S.2     1  UNL1       -0.0481
      6 C          14.2196   42.6822    7.0740 C.ar    1  UNL1        0.0183
      7 C          14.0977   43.1889    5.7715 C.ar    1  UNL1        0.0015
      8 C          15.1789   43.8226    5.1521 C.ar    1  UNL1        0.0000
      9 C          16.3895   43.9651    5.8347 C.ar    1  UNL1        0.0000
     10 C          16.5171   43.4785    7.1380 C.ar    1  UNL1        0.0000
     11 C          15.4351   42.8453    7.7561 C.ar    1  UNL1        0.0015
     12 C           8.7648   43.0142    9.0904 C.2     1  UNL1        0.2683
     13 N           9.4582   42.1684    8.1654 N.am    1  UNL1       -0.2594
     14 O           9.3887   43.5676   10.0362 O.2     1  UNL1       -0.2681
     15 H           8.9304   41.7575    7.4430 H       1  UNL1        0.1571
     16 C           6.4730   41.4794   10.5298 C.3     1  UNL1        0.1539
     17 C           5.3954   44.0437    8.3385 C.ar    1  UNL1        0.0806
     18 C           4.3240   44.8424    7.6880 C.3     1  UNL1        0.0540
     19 C           6.7533   44.2159    8.1290 C.ar    1  UNL1        0.0398
     20 C           7.3140   43.2486    8.9489 C.ar    1  UNL1        0.1326
     21 N           6.3305   42.5723    9.5820 N.ar    1  UNL1       -0.2447
     22 N           5.1569   43.0516    9.2148 N.ar    1  UNL1       -0.1735
     23 C          14.2646   40.1384    8.9753 C.2     1  UNL1        0.2030
     24 O          15.4214   40.5664    8.7126 O.2     1  UNL1       -0.2860
     25 C          14.1109   38.7967    9.5806 C.ar    1  UNL1        0.0395
     26 C          13.8269   37.6721    8.7900 C.ar    1  UNL1        0.0032
     27 C          13.6660   36.4136    9.3766 C.ar    1  UNL1        0.0001
     28 C          13.7823   36.2686   10.7611 C.ar    1  UNL1        0.0000
     29 C          14.0569   37.3821   11.5588 C.ar    1  UNL1        0.0001
     30 C          14.2177   38.6403   10.9713 C.ar    1  UNL1        0.0032
@<TRIPOS>BOND
     1    16    21    1
     2    17    19   ar
     3    18    17    1
     4    20    12    1
     5    20    21   ar
     6    12    13   am
     7     1     5   ar
     8     2     4   ar
     9     2     6    1
    10     3     5   ar
    11     3    23    1
    12    23    25    1
    13    26    27   ar
    14    28    29   ar
    15    30    25   ar
    16     7     8   ar
    17     9    10   ar
    18    11     6   ar
    19    21    22   ar
    20    13     1    1
    21    17    22   ar
    22    19    20   ar
    23    12    14    2
    24     1     4   ar
    25     2     3   ar
    26    23    24    2
    27    25    26   ar
    28    27    28   ar
    29    29    30   ar
    30     6     7   ar
    31     8     9   ar
    32    10    11   ar
    33    13    15    1
@<TRIPOS>MOLECULE
MolPort-009-692-502 9122423 CSSS00106925912 GURPVROGVCIAHM-UHFFFAOYSA-N MCULE-7597087955 PubChem-16952737 ZINC000009122423 ZINC09122423
 30 33 0 0 0
SMALL
GASTEIGER

@<TRIPOS>ATOM
      1 C          13.2642   38.5426    8.5896 C.ar    1  UNL1        0.1659
      2 C          13.3033   40.7420    8.1082 C.ar    1  UNL1        0.0923
      3 C          12.1739   40.7073    8.9475 C.ar    1  UNL1        0.0886
      4 N          13.8970   39.5297    7.9212 N.ar    1  UNL1       -0.2238
      5 S          11.9465   39.1130    9.4511 S.2     1  UNL1       -0.0481
      6 C          13.8213   41.9414    7.4134 C.ar    1  UNL1        0.0183
      7 C          15.0809   42.4519    7.7609 C.ar    1  UNL1        0.0015
      8 C          15.6069   43.5607    7.0917 C.ar    1  UNL1        0.0000
      9 C          14.8818   44.1629    6.0605 C.ar    1  UNL1        0.0000
     10 C          13.6334   43.6532    5.6955 C.ar    1  UNL1        0.0000
     11 C          13.1088   42.5441    6.3652 C.ar    1  UNL1        0.0015
     12 C          15.0141   36.7083    8.7589 C.2     1  UNL1        0.2683
     13 N          13.6711   37.1712    8.5748 N.am    1  UNL1       -0.2594
     14 O          15.9493   37.5317    8.9525 O.2     1  UNL1       -0.2681
     15 H          12.9735   36.4925    8.4266 H       1  UNL1        0.1571
     16 C          17.8340   35.3953    8.6950 C.3     1  UNL1        0.1539
     17 C          15.1305   33.1085    8.6813 C.ar    1  UNL1        0.0806
     18 C          14.5895   31.7243    8.6591 C.3     1  UNL1        0.0540
     19 C          14.3636   34.2609    8.7155 C.ar    1  UNL1        0.0398
     20 C          15.3203   35.2643    8.7244 C.ar    1  UNL1        0.1326
     21 N          16.5520   34.7099    8.6969 N.ar    1  UNL1       -0.2447
     22 N          16.4447   33.3947    8.6706 N.ar    1  UNL1       -0.1735
     23 C          11.4072   41.8554    9.4757 C.2     1  UNL1        0.2030
     24 O          11.8154   43.0233    9.2311 O.2     1  UNL1       -0.2860
     25 C          10.1975   41.6726   10.3083 C.ar    1  UNL1        0.0395
     26 C           8.9136   41.8678    9.7757 C.ar    1  UNL1        0.0032
     27 C           7.7800   41.7098   10.5780 C.ar    1  UNL1        0.0001
     28 C           7.9200   41.3600   11.9232 C.ar    1  UNL1        0.0000
     29 C           9.1931   41.1708   12.4663 C.ar    1  UNL1        0.0001
     30 C          10.3262   41.3290   11.6630 C.ar    1  UNL1        0.0032
@<TRIPOS>BOND
     1    16    21    1
     2    17    19   ar
     3    18    17    1
     4    20    12    1
     5    20    21   ar
     6    12    13   am
     7     1     5   ar
     8     2     4   ar
     9     2     6    1
    10     3     5   ar
    11     3    23    1
    12    23    25    1
    13    26    27   ar
    14    28    29   ar
    15    30    25   ar
    16     7     8   ar
    17     9    10   ar
    18    11     6   ar
    19    21    22   ar
    20    13     1    1
    21    17    22   ar
    22    19    20   ar
    23    12    14    2
    24     1     4   ar
    25     2     3   ar
    26    23    24    2
    27    25    26   ar
    28    27    28   ar
    29    29    30   ar
    30     6     7   ar
    31     8     9   ar
    32    10    11   ar
    33    13    15    1
@<TRIPOS>MOLECULE
MolPort-009-692-502 9122423 CSSS00106925912 GURPVROGVCIAHM-UHFFFAOYSA-N MCULE-7597087955 PubChem-16952737 ZINC000009122423 ZINC09122423
 30 33 0 0 0
SMALL
GASTEIGER

@<TRIPOS>ATOM
      1 C          11.0419   40.9128    9.8065 C.ar    1  UNL1        0.1659
      2 C           9.0430   41.7272    9.1645 C.ar    1  UNL1        0.0923
      3 C           8.7981   41.5674   10.5413 C.ar    1  UNL1        0.0886
      4 N          10.2957   41.3590    8.7742 N.ar    1  UNL1       -0.2238
      5 S          10.2003   40.9561   11.2535 S.2     1  UNL1       -0.0481
      6 C           8.0572   42.1941    8.1646 C.ar    1  UNL1        0.0183
      7 C           7.7896   43.5661    8.0458 C.ar    1  UNL1        0.0015
      8 C           6.8908   44.0333    7.0824 C.ar    1  UNL1        0.0000
      9 C           6.2592   43.1326    6.2213 C.ar    1  UNL1        0.0000
     10 C           6.5303   41.7657    6.3203 C.ar    1  UNL1        0.0000
     11 C           7.4295   41.3000    7.2837 C.ar    1  UNL1        0.0015
     12 C          13.1809   39.9233   10.7554 C.2     1  UNL1        0.2683
     13 N          12.3946   40.4629    9.6867 N.am    1  UNL1       -0.2594
     14 O          12.6915   39.8141   11.9123 O.2     1  UNL1       -0.2681
     15 H          12.8181   40.5294    8.8004 H       1  UNL1        0.1571
     16 C          15.1876   41.1186    8.7000 C.3     1  UNL1        0.1539
     17 C          16.4592   38.4349   10.6286 C.ar    1  UNL1        0.0806
     18 C          17.5487   37.4961   11.0036 C.3     1  UNL1        0.0540
     19 C          15.1967   38.4547   11.1969 C.ar    1  UNL1        0.0398
     20 C          14.5717   39.4886   10.5168 C.ar    1  UNL1        0.1326
     21 N          15.4310   40.0190    9.6192 N.ar    1  UNL1       -0.2447
     22 N          16.5850   39.3814    9.6814 N.ar    1  UNL1       -0.1735
     23 C           7.6145   42.0159   11.3048 C.2     1  UNL1        0.2030
     24 O           7.7894   42.6622   12.3735 O.2     1  UNL1       -0.2860
     25 C           6.2359   41.6998   10.8691 C.ar    1  UNL1        0.0395
     26 C           5.5769   42.4911    9.9153 C.ar    1  UNL1        0.0032
     27 C           4.2680   42.1923    9.5262 C.ar    1  UNL1        0.0001
     28 C           3.6033   41.1016   10.0918 C.ar    1  UNL1        0.0000
     29 C           4.2463   40.3117   11.0478 C.ar    1  UNL1        0.0001
     30 C           5.5554   40.6112   11.4363 C.ar    1  UNL1        0.0032
@<TRIPOS>BOND
     1    16    21    1
     2    17    19   ar
     3    18    17    1
     4    20    12    1
     5    20    21   ar
     6    12    13   am
     7     1     5   ar
     8     2     4   ar
     9     2     6    1
    10     3     5   ar
    11     3    23    1
    12    23    25    1
    13    26    27   ar
    14    28    29   ar
    15    30    25   ar
    16     7     8   ar
    17     9    10   ar
    18    11     6   ar
    19    21    22   ar
    20    13     1    1
    21    17    22   ar
    22    19    20   ar
    23    12    14    2
    24     1     4   ar
    25     2     3   ar
    26    23    24    2
    27    25    26   ar
    28    27    28   ar
    29    29    30   ar
    30     6     7   ar
    31     8     9   ar
    32    10    11   ar
    33    13    15    1
@<TRIPOS>MOLECULE
MolPort-009-692-502 9122423 CSSS00106925912 GURPVROGVCIAHM-UHFFFAOYSA-N MCULE-7597087955 PubChem-16952737 ZINC000009122423 ZINC09122423
 30 33 0 0 0
SMALL
GASTEIGER

@<TRIPOS>ATOM
      1 C          10.2753   41.3031    8.5871 C.ar    1  UNL1        0.1659
      2 C          12.0967   40.2070    9.3302 C.ar    1  UNL1        0.0923
      3 C          12.6907   40.9889    8.3218 C.ar    1  UNL1        0.0886
      4 N          10.7535   40.3953    9.4639 N.ar    1  UNL1       -0.2238
      5 S          11.4826   41.9259    7.6079 S.2     1  UNL1       -0.0481
      6 C          12.7971   39.2094   10.1691 C.ar    1  UNL1        0.0183
      7 C          12.7105   37.8479    9.8420 C.ar    1  UNL1        0.0015
      8 C          13.3949   36.8913   10.5974 C.ar    1  UNL1        0.0000
      9 C          14.1816   37.2892   11.6812 C.ar    1  UNL1        0.0000
     10 C          14.2877   38.6438   12.0061 C.ar    1  UNL1        0.0000
     11 C          13.6031   39.5992   11.2498 C.ar    1  UNL1        0.0015
     12 C           8.3288   42.8284    9.1699 C.2     1  UNL1        0.2683
     13 N           8.9025   41.6970    8.5047 N.am    1  UNL1       -0.2594
     14 O           9.0450   43.5684    9.8975 O.2     1  UNL1       -0.2681
     15 H           8.3055   41.1476    7.9471 H       1  UNL1        0.1571
     16 C           5.9400   41.4158   10.5765 C.3     1  UNL1        0.1539
     17 C           5.0296   44.0429    8.3837 C.ar    1  UNL1        0.0806
     18 C           4.0110   44.9013    7.7244 C.3     1  UNL1        0.0540
     19 C           6.3972   44.1415    8.1906 C.ar    1  UNL1        0.0398
     20 C           6.8946   43.1422    9.0127 C.ar    1  UNL1        0.1326
     21 N           5.8685   42.5183    9.6317 N.ar    1  UNL1       -0.2447
     22 N           4.7270   43.0622    9.2531 N.ar    1  UNL1       -0.1735
     23 C          14.1317   41.1408    8.0297 C.2     1  UNL1        0.2030
     24 O          14.9334   40.2636    8.4519 O.2     1  UNL1       -0.2860
     25 C          14.6615   42.3063    7.2875 C.ar    1  UNL1        0.0395
     26 C          13.9568   42.8601    6.2071 C.ar    1  UNL1        0.0032
     27 C          14.4773   43.9495    5.5028 C.ar    1  UNL1        0.0001
     28 C          15.7111   44.4925    5.8691 C.ar    1  UNL1        0.0000
     29 C          16.4251   43.9448    6.9377 C.ar    1  UNL1        0.0001
     30 C          15.9037   42.8553    7.6415 C.ar    1  UNL1        0.0032
@<TRIPOS>BOND
     1    16    21    1
     2    17    19   ar
     3    18    17    1
     4    20    12    1
     5    20    21   ar
     6    12    13   am
     7     1     5   ar
     8     2     4   ar
     9     2     6    1
    10     3     5   ar
    11     3    23    1
    12    23    25    1
    13    26    27   ar
    14    28    29   ar
    15    30    25   ar
    16     7     8   ar
    17     9    10   ar
    18    11     6   ar
    19    21    22   ar
    20    13     1    1
    21    17    22   ar
    22    19    20   ar
    23    12    14    2
    24     1     4   ar
    25     2     3   ar
    26    23    24    2
    27    25    26   ar
    28    27    28   ar
    29    29    30   ar
    30     6     7   ar
    31     8     9   ar
    32    10    11   ar
    33    13    15    1
@<TRIPOS>MOLECULE
MolPort-009-692-502 9122423 CSSS00106925912 GURPVROGVCIAHM-UHFFFAOYSA-N MCULE-7597087955 PubChem-16952737 ZINC000009122423 ZINC09122423
 30 33 0 0 0
SMALL
GASTEIGER

@<TRIPOS>ATOM
      1 C          10.9941   39.4866    9.6798 C.ar    1  UNL1        0.1659
      2 C          12.7318   38.0572    9.7700 C.ar    1  UNL1        0.0923
      3 C          13.2381   39.0908   10.5803 C.ar    1  UNL1        0.0886
      4 N          11.4829   38.2942    9.2788 N.ar    1  UNL1       -0.2238
      5 S          12.0710   40.3065   10.6657 S.2     1  UNL1       -0.0481
      6 C          13.4579   36.8228    9.3979 C.ar    1  UNL1        0.0183
      7 C          14.6099   36.9114    8.6023 C.ar    1  UNL1        0.0015
      8 C          15.3335   35.7624    8.2702 C.ar    1  UNL1        0.0000
      9 C          14.9170   34.5144    8.7403 C.ar    1  UNL1        0.0000
     10 C          13.7803   34.4164    9.5464 C.ar    1  UNL1        0.0000
     11 C          13.0580   35.5662    9.8780 C.ar    1  UNL1        0.0015
     12 C           9.2161   41.3008    9.6300 C.2     1  UNL1        0.2683
     13 N           9.7061   39.9920    9.3161 N.am    1  UNL1       -0.2594
     14 O           9.9351   42.1108   10.2756 O.2     1  UNL1       -0.2681
     15 H           9.1100   39.3935    8.8105 H       1  UNL1        0.1571
     16 C           8.3112   42.0371    6.7456 C.3     1  UNL1        0.1539
     17 C           5.7673   42.2491    9.1997 C.ar    1  UNL1        0.0806
     18 C           4.3668   42.5314    9.6094 C.3     1  UNL1        0.0540
     19 C           6.7787   41.8430   10.0539 C.ar    1  UNL1        0.0398
     20 C           7.8657   41.7178    9.2025 C.ar    1  UNL1        0.1326
     21 N           7.4888   42.0344    7.9444 N.ar    1  UNL1       -0.2447
     22 N           6.2098   42.3597    7.9343 N.ar    1  UNL1       -0.1735
     23 C          14.4770   39.0801   11.3863 C.2     1  UNL1        0.2030
     24 O          14.3879   38.9377   12.6363 O.2     1  UNL1       -0.2860
     25 C          15.8114   39.2648   10.7736 C.ar    1  UNL1        0.0395
     26 C          16.0704   40.3397    9.9088 C.ar    1  UNL1        0.0032
     27 C          17.3299   40.4921    9.3222 C.ar    1  UNL1        0.0001
     28 C          18.3417   39.5670    9.5908 C.ar    1  UNL1        0.0000
     29 C          18.0932   38.4889   10.4437 C.ar    1  UNL1        0.0001
     30 C          16.8332   38.3374   11.0300 C.ar    1  UNL1        0.0032
@<TRIPOS>BOND
     1    16    21    1
     2    17    19   ar
     3    18    17    1
     4    20    12    1
     5    20    21   ar
     6    12    13   am
     7     1     5   ar
     8     2     4   ar
     9     2     6    1
    10     3     5   ar
    11     3    23    1
    12    23    25    1
    13    26    27   ar
    14    28    29   ar
    15    30    25   ar
    16     7     8   ar
    17     9    10   ar
    18    11     6   ar
    19    21    22   ar
    20    13     1    1
    21    17    22   ar
    22    19    20   ar
    23    12    14    2
    24     1     4   ar
    25     2     3   ar
    26    23    24    2
    27    25    26   ar
    28    27    28   ar
    29    29    30   ar
    30     6     7   ar
    31     8     9   ar
    32    10    11   ar
    33    13    15    1
@<TRIPOS>MOLECULE
MolPort-009-692-502 9122423 CSSS00106925912 GURPVROGVCIAHM-UHFFFAOYSA-N MCULE-7597087955 PubChem-16952737 ZINC000009122423 ZINC09122423
 30 33 0 0 0
SMALL
GASTEIGER

@<TRIPOS>ATOM
      1 C           5.6416   41.2927    9.2574 C.ar    1  UNL1        0.1659
      2 C           7.8476   41.3164    8.8058 C.ar    1  UNL1        0.0923
      3 C           7.3474   41.0793    7.5116 C.ar    1  UNL1        0.0886
      4 N           6.8850   41.4330    9.7634 N.ar    1  UNL1       -0.2238
      5 S           5.6635   41.0258    7.6045 S.2     1  UNL1       -0.0481
      6 C           9.2789   41.3881    9.1743 C.ar    1  UNL1        0.0183
      7 C           9.9502   40.2217    9.5704 C.ar    1  UNL1        0.0015
      8 C          11.3115   40.2585    9.8862 C.ar    1  UNL1        0.0000
      9 C          12.0168   41.4613    9.7981 C.ar    1  UNL1        0.0000
     10 C          11.3619   42.6257    9.3895 C.ar    1  UNL1        0.0000
     11 C          10.0008   42.5874    9.0737 C.ar    1  UNL1        0.0015
     12 C           4.3613   41.8667   11.3755 C.2     1  UNL1        0.2683
     13 N           4.4430   41.3703   10.0344 N.am    1  UNL1       -0.2594
     14 O           5.3968   42.2800   11.9645 O.2     1  UNL1       -0.2681
     15 H           3.6091   41.0580    9.6146 H       1  UNL1        0.1571
     16 C           2.8219   39.4444   12.5769 C.3     1  UNL1        0.1539
     17 C           1.2254   42.5766   13.0006 C.ar    1  UNL1        0.0806
     18 C           0.1031   43.4150   13.4972 C.3     1  UNL1        0.0540
     19 C           2.3332   43.0536   12.3205 C.ar    1  UNL1        0.0398
     20 C           3.0664   41.9009   12.0842 C.ar    1  UNL1        0.1326
     21 N           2.4106   40.8385   12.6005 N.ar    1  UNL1       -0.2447
     22 N           1.2863   41.2426   13.1614 N.ar    1  UNL1       -0.1735
     23 C           8.1034   41.0632    6.2416 C.2     1  UNL1        0.2030
     24 O           7.4840   41.2701    5.1626 O.2     1  UNL1       -0.2860
     25 C           9.5551   40.7789    6.1981 C.ar    1  UNL1        0.0395
     26 C          10.0497   39.4890    6.4468 C.ar    1  UNL1        0.0032
     27 C          11.4245   39.2380    6.4207 C.ar    1  UNL1        0.0001
     28 C          12.3188   40.2766    6.1507 C.ar    1  UNL1        0.0000
     29 C          11.8386   41.5661    5.9094 C.ar    1  UNL1        0.0001
     30 C          10.4634   41.8161    5.9356 C.ar    1  UNL1        0.0032
@<TRIPOS>BOND
     1    16    21    1
     2    17    19   ar
     3    18    17    1
     4    20    12    1
     5    20    21   ar
     6    12    13   am
     7     1     5   ar
     8     2     4   ar
     9     2     6    1
    10     3     5   ar
    11     3    23    1
    12    23    25    1
    13    26    27   ar
    14    28    29   ar
    15    30    25   ar
    16     7     8   ar
    17     9    10   ar
    18    11     6   ar
    19    21    22   ar
    20    13     1    1
    21    17    22   ar
    22    19    20   ar
    23    12    14    2
    24     1     4   ar
    25     2     3   ar
    26    23    24    2
    27    25    26   ar
    28    27    28   ar
    29    29    30   ar
    30     6     7   ar
    31     8     9   ar
    32    10    11   ar
    33    13    15    1
@<TRIPOS>MOLECULE
MolPort-009-692-502 9122423 CSSS00106925912 GURPVROGVCIAHM-UHFFFAOYSA-N MCULE-7597087955 PubChem-16952737 ZINC000009122423 ZINC09122423
 30 33 0 0 0
SMALL
GASTEIGER

@<TRIPOS>ATOM
      1 C          12.0216   40.3335   10.1857 C.ar    1  UNL1        0.1659
      2 C          10.0887   40.7941    9.1260 C.ar    1  UNL1        0.0923
      3 C           9.7195   41.1322   10.4415 C.ar    1  UNL1        0.0886
      4 N          11.3722   40.3527    9.0027 N.ar    1  UNL1       -0.2238
      5 S          11.0516   40.8661   11.4424 S.2     1  UNL1       -0.0481
      6 C           9.1977   40.8362    7.9454 C.ar    1  UNL1        0.0183
      7 C           8.2761   39.7992    7.7373 C.ar    1  UNL1        0.0015
      8 C           7.3983   39.8371    6.6500 C.ar    1  UNL1        0.0000
      9 C           7.4270   40.9189    5.7664 C.ar    1  UNL1        0.0000
     10 C           8.3299   41.9647    5.9731 C.ar    1  UNL1        0.0000
     11 C           9.2068   41.9257    7.0609 C.ar    1  UNL1        0.0015
     12 C          14.4666   40.2905    9.4964 C.2     1  UNL1        0.2683
     13 N          13.3800   39.9167   10.3515 N.am    1  UNL1       -0.2594
     14 O          14.2655   41.0439    8.5055 O.2     1  UNL1       -0.2681
     15 H          13.5839   39.3268   11.1129 H       1  UNL1        0.1571
     16 C          17.1343   41.7965    8.9527 C.3     1  UNL1        0.1539
     17 C          17.5110   38.5702   10.3626 C.ar    1  UNL1        0.0806
     18 C          18.3532   37.4588   10.8770 C.3     1  UNL1        0.0540
     19 C          16.1273   38.5605   10.3111 C.ar    1  UNL1        0.0398
     20 C          15.8333   39.7997    9.7635 C.ar    1  UNL1        0.1326
     21 N          16.9827   40.4671    9.5212 N.ar    1  UNL1       -0.2447
     22 N          18.0110   39.7235    9.8841 N.ar    1  UNL1       -0.1735
     23 C           8.4708   41.7851   10.8882 C.2     1  UNL1        0.2030
     24 O           8.0272   41.5254   12.0398 O.2     1  UNL1       -0.2860
     25 C           7.7119   42.7053   10.0123 C.ar    1  UNL1        0.0395
     26 C           8.2371   43.9535    9.6425 C.ar    1  UNL1        0.0032
     27 C           7.5019   44.8210    8.8297 C.ar    1  UNL1        0.0001
     28 C           6.2312   44.4506    8.3830 C.ar    1  UNL1        0.0000
     29 C           5.6950   43.2142    8.7511 C.ar    1  UNL1        0.0001
     30 C           6.4310   42.3472    9.5640 C.ar    1  UNL1        0.0032
@<TRIPOS>BOND
     1    16    21    1
     2    17    19   ar
     3    18    17    1
     4    20    12    1
     5    20    21   ar
     6    12    13   am
     7     1     5   ar
     8     2     4   ar
     9     2     6    1
    10     3     5   ar
    11     3    23    1
    12    23    25    1
    13    26    27   ar
    14    28    29   ar
    15    30    25   ar
    16     7     8   ar
    17     9    10   ar
    18    11     6   ar
    19    21    22   ar
    20    13     1    1
    21    17    22   ar
    22    19    20   ar
    23    12    14    2
    24     1     4   ar
    25     2     3   ar
    26    23    24    2
    27    25    26   ar
    28    27    28   ar
    29    29    30   ar
    30     6     7   ar
    31     8     9   ar
    32    10    11   ar
    33    13    15    1
@<TRIPOS>MOLECULE
MolPort-009-692-502 9122423 CSSS00106925912 GURPVROGVCIAHM-UHFFFAOYSA-N MCULE-7597087955 PubChem-16952737 ZINC000009122423 ZINC09122423
 30 33 0 0 0
SMALL
GASTEIGER

@<TRIPOS>ATOM
      1 C          11.3222   39.8358    9.5364 C.ar    1  UNL1        0.1659
      2 C          12.8602   38.2019    9.7260 C.ar    1  UNL1        0.0923
      3 C          13.4162   39.1485   10.6069 C.ar    1  UNL1        0.0886
      4 N          11.6959   38.6008    9.1406 N.ar    1  UNL1       -0.2238
      5 S          12.4015   40.4965   10.6330 S.2     1  UNL1       -0.0481
      6 C          13.4611   36.8955    9.3772 C.ar    1  UNL1        0.0183
      7 C          14.5799   36.8525    8.5319 C.ar    1  UNL1        0.0015
      8 C          15.1874   35.6329    8.2195 C.ar    1  UNL1        0.0000
      9 C          14.6874   34.4451    8.7591 C.ar    1  UNL1        0.0000
     10 C          13.5836   34.4778    9.6147 C.ar    1  UNL1        0.0000
     11 C          12.9774   35.6981    9.9264 C.ar    1  UNL1        0.0015
     12 C           9.3473   41.3990    9.8703 C.2     1  UNL1        0.2683
     13 N          10.1408   40.5031    9.0832 N.am    1  UNL1       -0.2594
     14 O           9.6704   41.6543   11.0621 O.2     1  UNL1       -0.2681
     15 H           9.8504   40.3334    8.1579 H       1  UNL1        0.1571
     16 C           6.4876   41.4319   11.0956 C.3     1  UNL1        0.1539
     17 C           6.7957   43.1206    7.9985 C.ar    1  UNL1        0.0806
     18 C           6.2214   43.9081    6.8764 C.3     1  UNL1        0.0540
     19 C           8.1193   42.7257    8.0965 C.ar    1  UNL1        0.0398
     20 C           8.1435   42.0339    9.2977 C.ar    1  UNL1        0.1326
     21 N           6.9076   42.0390    9.8433 N.ar    1  UNL1       -0.2447
     22 N           6.0794   42.7002    9.0564 N.ar    1  UNL1       -0.1735
     23 C          14.5708   38.9689   11.5121 C.2     1  UNL1        0.2030
     24 O          14.3633   38.8864   12.7533 O.2     1  UNL1       -0.2860
     25 C          15.9609   38.9171   11.0071 C.ar    1  UNL1        0.0395
     26 C          16.4781   39.9417   10.1989 C.ar    1  UNL1        0.0032
     27 C          17.7869   39.8715    9.7133 C.ar    1  UNL1        0.0001
     28 C          18.5899   38.7723   10.0271 C.ar    1  UNL1        0.0000
     29 C          18.0834   37.7428   10.8241 C.ar    1  UNL1        0.0001
     30 C          16.7743   37.8140   11.3093 C.ar    1  UNL1        0.0032
@<TRIPOS>BOND
     1    16    21    1
     2    17    19   ar
     3    18    17    1
     4    20    12    1
     5    20    21   ar
     6    12    13   am
     7     1     5   ar
     8     2     4   ar
     9     2     6    1
    10     3     5   ar
    11     3    23    1
    12    23    25    1
    13    26    27   ar
    14    28    29   ar
    15    30    25   ar
    16     7     8   ar
    17     9    10   ar
    18    11     6   ar
    19    21    22   ar
    20    13     1    1
    21    17    22   ar
    22    19    20   ar
    23    12    14    2
    24     1     4   ar
    25     2     3   ar
    26    23    24    2
    27    25    26   ar
    28    27    28   ar
    29    29    30   ar
    30     6     7   ar
    31     8     9   ar
    32    10    11   ar
    33    13    15    1
