@<TRIPOS>MOLECULE
MolPort-019-920-828 70638804 CSSS00035737450 MCULE-7100943101 PubChem-56765163 ZINC000070638804 ZINC70638804
 18 19 0 0 0
SMALL
GASTEIGER

@<TRIPOS>ATOM
      1 C          11.4376   41.4377    6.2743 C.ar    1  UNL1        0.1783
      2 C          11.9534   40.4856    7.1335 C.ar    1  UNL1        0.2065
      3 C          13.3777   42.0245    6.8132 C.ar    1  UNL1        0.2952
      4 O          13.1617   40.8924    7.4425 O.2     1  UNL1       -0.4202
      5 N          12.3336   42.4207    6.0634 N.ar    1  UNL1       -0.1897
      6 C          10.1035   41.4052    5.6649 C.2     1  UNL1        0.2890
      7 O           9.9078   40.7499    4.6062 O.2     1  UNL1       -0.2663
      8 N           9.0254   42.1192    6.2734 N.am    1  UNL1       -0.1883
      9 H           9.1924   42.6360    7.0945 H       1  UNL1        0.1829
     10 C           7.1068   43.1548    6.3655 C.3     1  UNL1        0.2055
     11 O           7.7781   42.1000    5.7440 O.3     1  UNL1       -0.2633
     12 C          14.8257   44.0193    6.2365 C.2     1  UNL1        0.2289
     13 O          13.9232   44.5534    5.5361 O.2     1  UNL1       -0.2747
     14 N          14.5918   42.7743    6.9044 N.am    1  UNL1       -0.2390
     15 H          15.3155   42.4102    7.4638 H       1  UNL1        0.1592
     16 C          16.1348   44.7176    6.4126 C.3     1  UNL1        0.0769
     17 C          17.0827   43.8460    7.2165 C.3     1  UNL1        0.0096
     18 C          17.2356   43.9383    5.7156 C.3     1  UNL1        0.0096
@<TRIPOS>BOND
     1    10    11    1
     2     6     1    1
     3     1     5   ar
     4     2     4   ar
     5     3     4   ar
     6     3    14    1
     7    16    12    1
     8    16    17    1
     9    17    18    1
    10    18    16    1
    11     8    11    1
    12     8     6   am
    13    14    12   am
    14     6     7    2
    15     1     2   ar
    16     3     5   ar
    17    12    13    2
    18     8     9    1
    19    14    15    1
@<TRIPOS>MOLECULE
MolPort-019-920-828 70638804 CSSS00035737450 MCULE-7100943101 PubChem-56765163 ZINC000070638804 ZINC70638804
 18 19 0 0 0
SMALL
GASTEIGER

@<TRIPOS>ATOM
      1 C          11.6623   41.2317    6.1336 C.ar    1  UNL1        0.1783
      2 C          12.1618   40.3864    7.1066 C.ar    1  UNL1        0.2065
      3 C          13.4630   42.0405    6.8420 C.ar    1  UNL1        0.2952
      4 O          13.2825   40.9297    7.5186 O.2     1  UNL1       -0.4202
      5 N          12.4805   42.2866    5.9568 N.ar    1  UNL1       -0.1897
      6 C          10.4169   41.0305    5.3846 C.2     1  UNL1        0.2890
      7 O           9.4859   41.8760    5.4670 O.2     1  UNL1       -0.2663
      8 N          10.2605   39.8728    4.5614 N.am    1  UNL1       -0.1883
      9 H          10.9904   39.2140    4.5127 H       1  UNL1        0.1829
     10 C           9.4124   38.5595    3.0390 C.3     1  UNL1        0.2055
     11 O           9.1286   39.6627    3.8464 O.3     1  UNL1       -0.2633
     12 C          15.1164   43.7575    5.9896 C.2     1  UNL1        0.2289
     13 O          14.5815   43.8009    4.8484 O.2     1  UNL1       -0.2747
     14 N          14.5826   42.9129    7.0155 N.am    1  UNL1       -0.2390
     15 H          15.0155   42.9342    7.8994 H       1  UNL1        0.1592
     16 C          16.2882   44.6344    6.2901 C.3     1  UNL1        0.0769
     17 C          17.1321   44.0128    7.3883 C.3     1  UNL1        0.0096
     18 C          17.5782   43.9107    5.9477 C.3     1  UNL1        0.0096
@<TRIPOS>BOND
     1    10    11    1
     2     6     1    1
     3     1     5   ar
     4     2     4   ar
     5     3     4   ar
     6     3    14    1
     7    16    12    1
     8    16    17    1
     9    17    18    1
    10    18    16    1
    11     8    11    1
    12     8     6   am
    13    14    12   am
    14     6     7    2
    15     1     2   ar
    16     3     5   ar
    17    12    13    2
    18     8     9    1
    19    14    15    1
@<TRIPOS>MOLECULE
MolPort-019-920-828 70638804 CSSS00035737450 MCULE-7100943101 PubChem-56765163 ZINC000070638804 ZINC70638804
 18 19 0 0 0
SMALL
GASTEIGER

@<TRIPOS>ATOM
      1 C          13.3689   43.0200    6.7070 C.ar    1  UNL1        0.1783
      2 C          12.7024   41.9953    6.0618 C.ar    1  UNL1        0.2065
      3 C          12.0277   42.1533    8.0665 C.ar    1  UNL1        0.2952
      4 O          11.8786   41.4851    6.9460 O.2     1  UNL1       -0.4202
      5 N          12.9484   43.1302    7.9816 N.ar    1  UNL1       -0.1897
      6 C          14.3943   43.8821    6.1087 C.2     1  UNL1        0.2890
      7 O          14.1376   44.5383    5.0637 O.2     1  UNL1       -0.2663
      8 N          15.6862   43.9759    6.7125 N.am    1  UNL1       -0.1883
      9 H          15.8787   43.4508    7.5228 H       1  UNL1        0.1829
     10 C          17.6404   43.8940    5.7451 C.3     1  UNL1        0.2055
     11 O          16.6520   44.7723    6.1933 O.3     1  UNL1       -0.2633
     12 C          10.7054   42.8924   10.0948 C.2     1  UNL1        0.2289
     13 O          10.7776   44.1109    9.7781 O.2     1  UNL1       -0.2747
     14 N          11.2943   41.8852    9.2644 N.am    1  UNL1       -0.2390
     15 H          11.1871   40.9451    9.5366 H       1  UNL1        0.1592
     16 C           9.9538   42.4913   11.3223 C.3     1  UNL1        0.0769
     17 C           8.9941   41.3612   10.9958 C.3     1  UNL1        0.0096
     18 C          10.2991   41.0611   11.6970 C.3     1  UNL1        0.0096
@<TRIPOS>BOND
     1    10    11    1
     2     6     1    1
     3     1     5   ar
     4     2     4   ar
     5     3     4   ar
     6     3    14    1
     7    16    12    1
     8    16    17    1
     9    17    18    1
    10    18    16    1
    11     8    11    1
    12     8     6   am
    13    14    12   am
    14     6     7    2
    15     1     2   ar
    16     3     5   ar
    17    12    13    2
    18     8     9    1
    19    14    15    1
@<TRIPOS>MOLECULE
MolPort-019-920-828 70638804 CSSS00035737450 MCULE-7100943101 PubChem-56765163 ZINC000070638804 ZINC70638804
 18 19 0 0 0
SMALL
GASTEIGER

@<TRIPOS>ATOM
      1 C          12.6325   40.1860    7.9037 C.ar    1  UNL1        0.1783
      2 C          12.0274   40.8049    6.8260 C.ar    1  UNL1        0.2065
      3 C          13.8992   41.7164    7.2316 C.ar    1  UNL1        0.2952
      4 O          12.8514   41.7502    6.4409 O.2     1  UNL1       -0.4202
      5 N          13.8228   40.7565    8.1707 N.ar    1  UNL1       -0.1897
      6 C          12.0768   39.0624    8.6660 C.2     1  UNL1        0.2890
      7 O          10.9785   39.1904    9.2709 O.2     1  UNL1       -0.2663
      8 N          12.7839   37.8218    8.7227 N.am    1  UNL1       -0.1883
      9 H          13.6459   37.7366    8.2547 H       1  UNL1        0.1829
     10 C          11.0190   37.1554    9.8193 C.3     1  UNL1        0.2055
     11 O          12.2930   36.7600    9.4070 O.3     1  UNL1       -0.2633
     12 C          14.9901   43.8564    6.4322 C.2     1  UNL1        0.2289
     13 O          13.9264   44.2759    5.9003 O.2     1  UNL1       -0.2747
     14 N          15.0173   42.6008    7.1203 N.am    1  UNL1       -0.2390
     15 H          15.8626   42.3282    7.5452 H       1  UNL1        0.1592
     16 C          16.2215   44.7015    6.3880 C.3     1  UNL1        0.0769
     17 C          17.3405   44.0269    7.1607 C.3     1  UNL1        0.0096
     18 C          17.3272   43.9678    5.6504 C.3     1  UNL1        0.0096
@<TRIPOS>BOND
     1    10    11    1
     2     6     1    1
     3     1     5   ar
     4     2     4   ar
     5     3     4   ar
     6     3    14    1
     7    16    12    1
     8    16    17    1
     9    17    18    1
    10    18    16    1
    11     8    11    1
    12     8     6   am
    13    14    12   am
    14     6     7    2
    15     1     2   ar
    16     3     5   ar
    17    12    13    2
    18     8     9    1
    19    14    15    1
@<TRIPOS>MOLECULE
MolPort-019-920-828 70638804 CSSS00035737450 MCULE-7100943101 PubChem-56765163 ZINC000070638804 ZINC70638804
 18 19 0 0 0
SMALL
GASTEIGER

@<TRIPOS>ATOM
      1 C          13.1838   42.0367    6.8062 C.ar    1  UNL1        0.1783
      2 C          11.9202   41.8272    6.2865 C.ar    1  UNL1        0.2065
      3 C          12.5106   40.1603    7.4579 C.ar    1  UNL1        0.2952
      4 O          11.5412   40.6478    6.7182 O.2     1  UNL1       -0.4202
      5 N          13.5696   40.9842    7.5526 N.ar    1  UNL1       -0.1897
      6 C          14.0091   43.2302    6.5905 C.2     1  UNL1        0.2890
      7 O          13.5627   44.1933    5.9109 O.2     1  UNL1       -0.2663
      8 N          15.3217   43.2990    7.1517 N.am    1  UNL1       -0.1883
      9 H          15.6637   42.5365    7.6722 H       1  UNL1        0.1829
     10 C          17.0747   43.9995    6.0573 C.3     1  UNL1        0.2055
     11 O          16.1054   44.3915    6.9826 O.3     1  UNL1       -0.2633
     12 C          11.8063   38.6376    9.3536 C.2     1  UNL1        0.2289
     13 O          11.1836   39.5590    9.9482 O.2     1  UNL1       -0.2747
     14 N          12.4628   38.8863    8.1054 N.am    1  UNL1       -0.2390
     15 H          12.9112   38.1294    7.6635 H       1  UNL1        0.1592
     16 C          11.8163   37.2599    9.9319 C.3     1  UNL1        0.0769
     17 C          13.0663   36.5213    9.4887 C.3     1  UNL1        0.0096
     18 C          12.9911   37.1049   10.8810 C.3     1  UNL1        0.0096
@<TRIPOS>BOND
     1    10    11    1
     2     6     1    1
     3     1     5   ar
     4     2     4   ar
     5     3     4   ar
     6     3    14    1
     7    16    12    1
     8    16    17    1
     9    17    18    1
    10    18    16    1
    11     8    11    1
    12     8     6   am
    13    14    12   am
    14     6     7    2
    15     1     2   ar
    16     3     5   ar
    17    12    13    2
    18     8     9    1
    19    14    15    1
@<TRIPOS>MOLECULE
MolPort-019-920-828 70638804 CSSS00035737450 MCULE-7100943101 PubChem-56765163 ZINC000070638804 ZINC70638804
 18 19 0 0 0
SMALL
GASTEIGER

@<TRIPOS>ATOM
      1 C          13.4202   40.8393    9.1370 C.ar    1  UNL1        0.1783
      2 C          13.4663   41.5034    7.9257 C.ar    1  UNL1        0.2065
      3 C          11.5386   41.6980    8.7890 C.ar    1  UNL1        0.2952
      4 O          12.2741   42.0220    7.7506 O.2     1  UNL1       -0.4202
      5 N          12.2001   40.9560    9.6952 N.ar    1  UNL1       -0.1897
      6 C          14.5312   40.1037    9.7509 C.2     1  UNL1        0.2890
      7 O          15.6277   39.9890    9.1400 O.2     1  UNL1       -0.2663
      8 N          14.3680   39.5158   11.0432 N.am    1  UNL1       -0.1883
      9 H          13.5037   39.6031   11.5066 H       1  UNL1        0.1829
     10 C          14.9651   37.5069   11.6511 C.3     1  UNL1        0.2055
     11 O          15.3776   38.8408   11.6444 O.3     1  UNL1       -0.2633
     12 C           9.7470   43.2767    9.6294 C.2     1  UNL1        0.2289
     13 O          10.5911   44.0911   10.0927 O.2     1  UNL1       -0.2747
     14 N          10.1727   42.0859    8.9573 N.am    1  UNL1       -0.2390
     15 H           9.4783   41.4948    8.5863 H       1  UNL1        0.1592
     16 C           8.2886   43.5826    9.7379 C.3     1  UNL1        0.0769
     17 C           8.0291   45.0208    9.3272 C.3     1  UNL1        0.0096
     18 C           7.7215   43.8965    8.3649 C.3     1  UNL1        0.0096
@<TRIPOS>BOND
     1    10    11    1
     2     6     1    1
     3     1     5   ar
     4     2     4   ar
     5     3     4   ar
     6     3    14    1
     7    16    12    1
     8    16    17    1
     9    17    18    1
    10    18    16    1
    11     8    11    1
    12     8     6   am
    13    14    12   am
    14     6     7    2
    15     1     2   ar
    16     3     5   ar
    17    12    13    2
    18     8     9    1
    19    14    15    1
@<TRIPOS>MOLECULE
MolPort-019-920-828 70638804 CSSS00035737450 MCULE-7100943101 PubChem-56765163 ZINC000070638804 ZINC70638804
 18 19 0 0 0
SMALL
GASTEIGER

@<TRIPOS>ATOM
      1 C          14.3300   39.5376    9.5582 C.ar    1  UNL1        0.1783
      2 C          15.5907   38.9899    9.7044 C.ar    1  UNL1        0.2065
      3 C          15.7377   40.9544    8.9180 C.ar    1  UNL1        0.2952
      4 O          16.4344   39.9067    9.2939 O.2     1  UNL1       -0.4202
      5 N          14.4107   40.7859    9.0594 N.ar    1  UNL1       -0.1897
      6 C          13.0658   38.8729    9.8931 C.2     1  UNL1        0.2890
      7 O          12.2430   39.4322   10.6668 O.2     1  UNL1       -0.2663
      8 N          12.7688   37.5885    9.3411 N.am    1  UNL1       -0.1883
      9 H          13.4235   37.1567    8.7460 H       1  UNL1        0.1829
     10 C          11.9529   35.9423   10.5183 C.3     1  UNL1        0.2055
     11 O          11.6050   36.9525    9.6195 O.3     1  UNL1       -0.2633
     12 C          15.7984   42.8935    7.2917 C.2     1  UNL1        0.2289
     13 O          14.7501   42.5152    6.7015 O.2     1  UNL1       -0.2747
     14 N          16.3133   42.1603    8.4089 N.am    1  UNL1       -0.2390
     15 H          17.1174   42.5099    8.8565 H       1  UNL1        0.1592
     16 C          16.4816   44.1477    6.8530 C.3     1  UNL1        0.0769
     17 C          17.9514   44.0956    7.2292 C.3     1  UNL1        0.0096
     18 C          17.5299   43.8265    5.8028 C.3     1  UNL1        0.0096
@<TRIPOS>BOND
     1    10    11    1
     2     6     1    1
     3     1     5   ar
     4     2     4   ar
     5     3     4   ar
     6     3    14    1
     7    16    12    1
     8    16    17    1
     9    17    18    1
    10    18    16    1
    11     8    11    1
    12     8     6   am
    13    14    12   am
    14     6     7    2
    15     1     2   ar
    16     3     5   ar
    17    12    13    2
    18     8     9    1
    19    14    15    1
@<TRIPOS>MOLECULE
MolPort-019-920-828 70638804 CSSS00035737450 MCULE-7100943101 PubChem-56765163 ZINC000070638804 ZINC70638804
 18 19 0 0 0
SMALL
GASTEIGER

@<TRIPOS>ATOM
      1 C          14.8014   41.5495    8.1055 C.ar    1  UNL1        0.1783
      2 C          15.9492   41.2097    8.7967 C.ar    1  UNL1        0.2065
      3 C          14.4829   39.6951    9.0320 C.ar    1  UNL1        0.2952
      4 O          15.7049   40.0490    9.3572 O.2     1  UNL1       -0.4202
      5 N          13.8626   40.5944    8.2474 N.ar    1  UNL1       -0.1897
      6 C          14.6084   42.7729    7.3191 C.2     1  UNL1        0.2890
      7 O          13.4727   43.3168    7.2644 O.2     1  UNL1       -0.2663
      8 N          15.7107   43.3469    6.6135 N.am    1  UNL1       -0.1883
      9 H          16.5908   42.9076    6.6552 H       1  UNL1        0.1829
     10 C          14.9077   44.0877    4.7247 C.3     1  UNL1        0.2055
     11 O          15.5702   44.4830    5.8884 O.3     1  UNL1       -0.2633
     12 C          13.8851   37.9864   10.8016 C.2     1  UNL1        0.2289
     13 O          14.4520   38.6417   11.7178 O.2     1  UNL1       -0.2747
     14 N          13.8589   38.4811    9.4580 N.am    1  UNL1       -0.2390
     15 H          13.3792   37.9496    8.7822 H       1  UNL1        0.1592
     16 C          13.1894   36.7058   11.1311 C.3     1  UNL1        0.0769
     17 C          12.2550   36.3180    9.9993 C.3     1  UNL1        0.0096
     18 C          13.5923   35.6278   10.1409 C.3     1  UNL1        0.0096
@<TRIPOS>BOND
     1    10    11    1
     2     6     1    1
     3     1     5   ar
     4     2     4   ar
     5     3     4   ar
     6     3    14    1
     7    16    12    1
     8    16    17    1
     9    17    18    1
    10    18    16    1
    11     8    11    1
    12     8     6   am
    13    14    12   am
    14     6     7    2
    15     1     2   ar
    16     3     5   ar
    17    12    13    2
    18     8     9    1
    19    14    15    1
@<TRIPOS>MOLECULE
MolPort-019-920-828 70638804 CSSS00035737450 MCULE-7100943101 PubChem-56765163 ZINC000070638804 ZINC70638804
 18 19 0 0 0
SMALL
GASTEIGER

@<TRIPOS>ATOM
      1 C          11.2933   41.6478    7.6339 C.ar    1  UNL1        0.1783
      2 C          11.5442   41.2363    6.3384 C.ar    1  UNL1        0.2065
      3 C          12.9719   42.6895    6.9295 C.ar    1  UNL1        0.2952
      4 O          12.5969   41.9107    5.9409 O.2     1  UNL1       -0.4202
      5 N          12.1943   42.5711    8.0206 N.ar    1  UNL1       -0.1897
      6 C          10.2050   41.1614    8.4891 C.2     1  UNL1        0.2890
      7 O          10.4657   40.4923    9.5249 O.2     1  UNL1       -0.2663
      8 N           8.8476   41.4468    8.1451 N.am    1  UNL1       -0.1883
      9 H           8.6556   41.9617    7.3282 H       1  UNL1        0.1829
     10 C           7.2956   42.1861    9.4892 C.3     1  UNL1        0.2055
     11 O           7.8192   41.0238    8.9196 O.3     1  UNL1       -0.2633
     12 C          15.4180   43.2360    7.2846 C.2     1  UNL1        0.2289
     13 O          15.6827   42.0765    7.7040 O.2     1  UNL1       -0.2747
     14 N          14.0904   43.5783    6.8709 N.am    1  UNL1       -0.2390
     15 H          13.9377   44.4865    6.5229 H       1  UNL1        0.1592
     16 C          16.5115   44.2477    7.1700 C.3     1  UNL1        0.0769
     17 C          17.8628   43.5583    7.2249 C.3     1  UNL1        0.0096
     18 C          17.3035   44.0126    5.8963 C.3     1  UNL1        0.0096
@<TRIPOS>BOND
     1    10    11    1
     2     6     1    1
     3     1     5   ar
     4     2     4   ar
     5     3     4   ar
     6     3    14    1
     7    16    12    1
     8    16    17    1
     9    17    18    1
    10    18    16    1
    11     8    11    1
    12     8     6   am
    13    14    12   am
    14     6     7    2
    15     1     2   ar
    16     3     5   ar
    17    12    13    2
    18     8     9    1
    19    14    15    1
@<TRIPOS>MOLECULE
MolPort-019-920-828 70638804 CSSS00035737450 MCULE-7100943101 PubChem-56765163 ZINC000070638804 ZINC70638804
 18 19 0 0 0
SMALL
GASTEIGER

@<TRIPOS>ATOM
      1 C          13.0951   38.1890   10.6447 C.ar    1  UNL1        0.1783
      2 C          13.4771   39.4232   11.1360 C.ar    1  UNL1        0.2065
      3 C          11.4971   39.5216   10.3817 C.ar    1  UNL1        0.2952
      4 O          12.4518   40.2204   10.9514 O.2     1  UNL1       -0.4202
      5 N          11.8386   38.2391   10.1628 N.ar    1  UNL1       -0.1897
      6 C          13.9237   36.9783   10.6384 C.2     1  UNL1        0.2890
      7 O          14.6016   36.6708   11.6554 O.2     1  UNL1       -0.2663
      8 N          13.9620   36.1480    9.4758 N.am    1  UNL1       -0.1883
      9 H          13.4363   36.4036    8.6836 H       1  UNL1        0.1829
     10 C          15.6778   35.2543    8.4664 C.3     1  UNL1        0.2055
     11 O          14.7065   35.0162    9.4408 O.3     1  UNL1       -0.2633
     12 C           9.9834   40.9098    8.9018 C.2     1  UNL1        0.2289
     13 O          10.9244   41.2222    8.1226 O.2     1  UNL1       -0.2747
     14 N          10.2182   40.0521   10.0244 N.am    1  UNL1       -0.2390
     15 H           9.4475   39.8117   10.5879 H       1  UNL1        0.1592
     16 C           8.5993   41.3980    8.6220 C.3     1  UNL1        0.0769
     17 C           8.4794   41.8080    7.1653 C.3     1  UNL1        0.0096
     18 C           7.9187   40.4807    7.6219 C.3     1  UNL1        0.0096
@<TRIPOS>BOND
     1    10    11    1
     2     6     1    1
     3     1     5   ar
     4     2     4   ar
     5     3     4   ar
     6     3    14    1
     7    16    12    1
     8    16    17    1
     9    17    18    1
    10    18    16    1
    11     8    11    1
    12     8     6   am
    13    14    12   am
    14     6     7    2
    15     1     2   ar
    16     3     5   ar
    17    12    13    2
    18     8     9    1
    19    14    15    1
