@<TRIPOS>MOLECULE
Molport-046-959-955 MCULE-9815740437 PubChem-110097712
 27 30 0 0 0
SMALL
GASTEIGER

@<TRIPOS>ATOM
      1 C          14.6033   39.9926    9.9354 C.ar    1  UNL1       -0.0168
      2 C          15.0640   40.9968    9.0811 C.ar    1  UNL1        0.0302
      3 C          16.4376   41.2113    8.9445 C.ar    1  UNL1        0.1329
      4 C          16.8904   39.4540   10.4833 C.ar    1  UNL1        0.1000
      5 C          15.5252   39.2119   10.6438 C.ar    1  UNL1        0.0165
      6 N          17.3139   40.4384    9.6458 N.ar    1  UNL1       -0.2291
      7 C          10.4601   39.1913    9.9598 C.3     1  UNL1        0.0724
      8 C          11.3524   37.9602    9.8173 C.3     1  UNL1        0.0177
      9 C          12.7985   38.2799   10.2073 C.3     1  UNL1        0.0072
     10 C          13.1321   39.7694   10.0692 C.3     1  UNL1        0.0385
     11 C          12.3578   40.4113    8.9123 C.3     1  UNL1        0.0767
     12 N          10.8943   40.2761    9.0622 N.3     1  UNL1       -0.2686
     13 C          10.3031   41.5483    9.4954 C.3     1  UNL1        0.1023
     14 C           9.2111   41.0863   14.3479 C.3     1  UNL1        0.1537
     15 C          10.1153   41.2372   12.0437 C.ar    1  UNL1        0.0938
     16 C           9.5618   41.4540   10.7995 C.ar    1  UNL1        0.0335
     17 C           8.2005   41.6161   10.9768 C.ar    1  UNL1        0.1187
     18 N           9.0925   41.2674   12.9136 N.ar    1  UNL1       -0.2476
     19 N           7.9462   41.4925   12.2938 N.ar    1  UNL1       -0.1679
     20 N          16.8961   42.2446    8.0645 N.pl3   1  UNL1       -0.2821
     21 H          17.8674   42.4011    8.0299 H       1  UNL1        0.1551
     22 C          16.0769   43.0720    7.2300 C.ar    1  UNL1        0.1526
     23 C          15.6996   45.0968    6.0538 C.ar    1  UNL1        0.1210
     24 C          14.4609   44.6178    5.6251 C.ar    1  UNL1        0.1196
     25 C          14.8368   42.5958    6.7993 C.ar    1  UNL1        0.1332
     26 N          16.4795   44.3147    6.8457 N.ar    1  UNL1       -0.2258
     27 N          14.0566   43.3777    6.0073 N.ar    1  UNL1       -0.2378
@<TRIPOS>BOND
     1    14    18    1
     2    16    17   ar
     3    13    16    1
     4    13    12    1
     5     7    12    1
     6     7     8    1
     7     8     9    1
     8     9    10    1
     9    10    11    1
    10    10     1    1
    11    11    12    1
    12     2     3   ar
    13     3    20    1
    14     4     6   ar
    15     5     1   ar
    16    23    26   ar
    17    24    27   ar
    18    25    22   ar
    19    18    15   ar
    20    18    19   ar
    21    20    22    1
    22    15    16   ar
    23    17    19   ar
    24     1     2   ar
    25     3     6   ar
    26     4     5   ar
    27    22    26   ar
    28    23    24   ar
    29    25    27   ar
    30    20    21    1
@<TRIPOS>MOLECULE
Molport-046-959-955 MCULE-9815740437 PubChem-110097712
 27 30 0 0 0
SMALL
GASTEIGER

@<TRIPOS>ATOM
      1 C          14.9575   39.9665    9.7471 C.ar    1  UNL1       -0.0168
      2 C          15.4044   41.0399    8.9736 C.ar    1  UNL1        0.0302
      3 C          16.7741   41.2954    8.8723 C.ar    1  UNL1        0.1329
      4 C          17.2498   39.4429   10.2875 C.ar    1  UNL1        0.1000
      5 C          15.8890   39.1583   10.4108 C.ar    1  UNL1        0.0165
      6 N          17.6600   40.4945    9.5288 N.ar    1  UNL1       -0.2291
      7 C          10.8523   38.9895    9.7000 C.3     1  UNL1        0.0724
      8 C          11.7967   37.7940    9.8048 C.3     1  UNL1        0.0177
      9 C          13.2059   38.2388   10.2073 C.3     1  UNL1        0.0072
     10 C          13.4905   39.7002    9.8436 C.3     1  UNL1        0.0385
     11 C          12.7583   40.1104    8.5609 C.3     1  UNL1        0.0767
     12 N          11.2948   39.9339    8.6592 N.3     1  UNL1       -0.2686
     13 C          10.6331   41.2308    8.8489 C.3     1  UNL1        0.1023
     14 C           6.7969   43.0818    6.2393 C.3     1  UNL1        0.1537
     15 C           8.5073   42.2801    7.8460 C.ar    1  UNL1        0.0938
     16 C           9.7011   41.6000    7.7289 C.ar    1  UNL1        0.0335
     17 C           9.9082   41.3598    6.3835 C.ar    1  UNL1        0.1187
     18 N           8.0375   42.4200    6.5956 N.ar    1  UNL1       -0.2476
     19 N           8.8605   41.8778    5.7138 N.ar    1  UNL1       -0.1679
     20 N          17.2185   42.3997    8.0752 N.pl3   1  UNL1       -0.2821
     21 H          18.1776   42.6185    8.1134 H       1  UNL1        0.1551
     22 C          16.4015   43.2161    7.2279 C.ar    1  UNL1        0.1526
     23 C          14.3744   43.6091    6.0607 C.ar    1  UNL1        0.1210
     24 C          14.8763   44.8260    5.5974 C.ar    1  UNL1        0.1196
     25 C          16.9007   44.4344    6.7623 C.ar    1  UNL1        0.1332
     26 N          15.1467   42.8318    6.8647 N.ar    1  UNL1       -0.2258
     27 N          16.1285   45.2120    5.9583 N.ar    1  UNL1       -0.2378
@<TRIPOS>BOND
     1    14    18    1
     2    16    17   ar
     3    13    16    1
     4    13    12    1
     5     7    12    1
     6     7     8    1
     7     8     9    1
     8     9    10    1
     9    10    11    1
    10    10     1    1
    11    11    12    1
    12     2     3   ar
    13     3    20    1
    14     4     6   ar
    15     5     1   ar
    16    23    26   ar
    17    24    27   ar
    18    25    22   ar
    19    18    15   ar
    20    18    19   ar
    21    20    22    1
    22    15    16   ar
    23    17    19   ar
    24     1     2   ar
    25     3     6   ar
    26     4     5   ar
    27    22    26   ar
    28    23    24   ar
    29    25    27   ar
    30    20    21    1
@<TRIPOS>MOLECULE
Molport-046-959-955 MCULE-9815740437 PubChem-110097712
 27 30 0 0 0
SMALL
GASTEIGER

@<TRIPOS>ATOM
      1 C          15.0601   39.7211    9.7194 C.ar    1  UNL1       -0.0168
      2 C          15.3416   40.8844    8.9998 C.ar    1  UNL1        0.0302
      3 C          16.6622   41.3268    8.8910 C.ar    1  UNL1        0.1329
      4 C          17.4137   39.4828   10.1931 C.ar    1  UNL1        0.1000
      5 C          16.1063   39.0116   10.3221 C.ar    1  UNL1        0.0165
      6 N          17.6621   40.6187    9.4876 N.ar    1  UNL1       -0.2291
      7 C          11.1735   38.0803    9.8253 C.3     1  UNL1        0.0724
      8 C          12.2507   37.2255   10.4895 C.3     1  UNL1        0.0177
      9 C          13.5174   38.0444   10.7554 C.3     1  UNL1        0.0072
     10 C          13.6444   39.2551    9.8244 C.3     1  UNL1        0.0385
     11 C          13.0433   38.9653    8.4443 C.3     1  UNL1        0.0767
     12 N          11.6185   38.5810    8.5130 N.3     1  UNL1       -0.2686
     13 C          10.7647   39.6981    8.0899 C.3     1  UNL1        0.1023
     14 C           9.5317   39.0656    3.2908 C.3     1  UNL1        0.1537
     15 C          10.4850   39.4971    5.5390 C.ar    1  UNL1        0.0938
     16 C           9.9975   39.4239    6.8268 C.ar    1  UNL1        0.0335
     17 C           8.6826   39.0054    6.7465 C.ar    1  UNL1        0.1187
     18 N           9.4693   39.1353    4.7383 N.ar    1  UNL1       -0.2476
     19 N           8.3897   38.8391    5.4422 N.ar    1  UNL1       -0.1679
     20 N          16.9366   42.5215    8.1496 N.pl3   1  UNL1       -0.2821
     21 H          17.8237   42.9294    8.2754 H       1  UNL1        0.1551
     22 C          16.0442   43.1797    7.2427 C.ar    1  UNL1        0.1526
     23 C          14.0444   43.2180    5.9678 C.ar    1  UNL1        0.1210
     24 C          14.3670   44.4922    5.4989 C.ar    1  UNL1        0.1196
     25 C          16.3639   44.4548    6.7714 C.ar    1  UNL1        0.1332
     26 N          14.8887   42.5904    6.8283 N.ar    1  UNL1       -0.2258
     27 N          15.5197   45.0827    5.9110 N.ar    1  UNL1       -0.2378
@<TRIPOS>BOND
     1    14    18    1
     2    16    17   ar
     3    13    16    1
     4    13    12    1
     5     7    12    1
     6     7     8    1
     7     8     9    1
     8     9    10    1
     9    10    11    1
    10    10     1    1
    11    11    12    1
    12     2     3   ar
    13     3    20    1
    14     4     6   ar
    15     5     1   ar
    16    23    26   ar
    17    24    27   ar
    18    25    22   ar
    19    18    15   ar
    20    18    19   ar
    21    20    22    1
    22    15    16   ar
    23    17    19   ar
    24     1     2   ar
    25     3     6   ar
    26     4     5   ar
    27    22    26   ar
    28    23    24   ar
    29    25    27   ar
    30    20    21    1
@<TRIPOS>MOLECULE
Molport-046-959-955 MCULE-9815740437 PubChem-110097712
 27 30 0 0 0
SMALL
GASTEIGER

@<TRIPOS>ATOM
      1 C          14.6072   39.8532    9.5164 C.ar    1  UNL1       -0.0168
      2 C          15.1342   40.9443    8.8221 C.ar    1  UNL1        0.0302
      3 C          16.4966   41.2354    8.9243 C.ar    1  UNL1        0.1329
      4 C          16.8085   39.3834   10.3849 C.ar    1  UNL1        0.1000
      5 C          15.4523   39.0632   10.3057 C.ar    1  UNL1        0.0165
      6 N          17.2975   40.4516    9.6998 N.ar    1  UNL1       -0.2291
      7 C          10.5903   38.6948    8.9397 C.3     1  UNL1        0.0724
      8 C          11.4904   37.6173    9.5408 C.3     1  UNL1        0.0177
      9 C          12.7925   38.2220   10.0742 C.3     1  UNL1        0.0072
     10 C          13.1494   39.5488    9.3952 C.3     1  UNL1        0.0385
     11 C          12.6894   39.5706    7.9331 C.3     1  UNL1        0.0767
     12 N          11.2351   39.3534    7.7903 N.3     1  UNL1       -0.2686
     13 C          10.5537   40.6200    7.4947 C.3     1  UNL1        0.1023
     14 C           6.6147   41.7202   10.3629 C.3     1  UNL1        0.1537
     15 C           8.3106   41.0643    8.6766 C.ar    1  UNL1        0.0938
     16 C           9.6875   41.1137    8.6194 C.ar    1  UNL1        0.0335
     17 C          10.1300   41.6595    9.8098 C.ar    1  UNL1        0.1187
     18 N           7.9717   41.5772    9.8707 N.ar    1  UNL1       -0.2476
     19 N           9.0438   41.9355   10.5571 N.ar    1  UNL1       -0.1679
     20 N          17.0238   42.3575    8.2064 N.pl3   1  UNL1       -0.2821
     21 H          17.9771   42.5636    8.3406 H       1  UNL1        0.1551
     22 C          16.2971   43.2086    7.3123 C.ar    1  UNL1        0.1526
     23 C          14.3322   43.7338    6.0920 C.ar    1  UNL1        0.1210
     24 C          14.9492   44.8808    5.5908 C.ar    1  UNL1        0.1196
     25 C          16.9115   44.3572    6.8088 C.ar    1  UNL1        0.1332
     26 N          15.0185   42.9239    6.9405 N.ar    1  UNL1       -0.2258
     27 N          16.2254   45.1674    5.9602 N.ar    1  UNL1       -0.2378
@<TRIPOS>BOND
     1    14    18    1
     2    16    17   ar
     3    13    16    1
     4    13    12    1
     5     7    12    1
     6     7     8    1
     7     8     9    1
     8     9    10    1
     9    10    11    1
    10    10     1    1
    11    11    12    1
    12     2     3   ar
    13     3    20    1
    14     4     6   ar
    15     5     1   ar
    16    23    26   ar
    17    24    27   ar
    18    25    22   ar
    19    18    15   ar
    20    18    19   ar
    21    20    22    1
    22    15    16   ar
    23    17    19   ar
    24     1     2   ar
    25     3     6   ar
    26     4     5   ar
    27    22    26   ar
    28    23    24   ar
    29    25    27   ar
    30    20    21    1
@<TRIPOS>MOLECULE
Molport-046-959-955 MCULE-9815740437 PubChem-110097712
 27 30 0 0 0
SMALL
GASTEIGER

@<TRIPOS>ATOM
      1 C          13.3668   39.6456   10.2570 C.ar    1  UNL1       -0.0168
      2 C          14.3786   40.2663    9.5212 C.ar    1  UNL1        0.0302
      3 C          15.7124   40.0954    9.8998 C.ar    1  UNL1        0.1329
      4 C          15.0457   38.7091   11.7149 C.ar    1  UNL1        0.1000
      5 C          13.7027   38.8579   11.3652 C.ar    1  UNL1        0.0165
      6 N          16.0126   39.3244   10.9827 N.ar    1  UNL1       -0.2291
      7 C           9.4765   40.1631    8.7056 C.3     1  UNL1        0.0724
      8 C          10.1881   38.8921    8.2468 C.3     1  UNL1        0.0177
      9 C          11.3956   38.5848    9.1373 C.3     1  UNL1        0.0072
     10 C          11.9445   39.8318    9.8393 C.3     1  UNL1        0.0385
     11 C          11.7717   41.0838    8.9720 C.3     1  UNL1        0.0767
     12 N          10.3614   41.3374    8.6124 N.3     1  UNL1       -0.2686
     13 C           9.8163   42.4376    9.4176 C.3     1  UNL1        0.1023
     14 C           9.0892   40.9948   14.1444 C.3     1  UNL1        0.1537
     15 C           9.8255   41.6946   11.8821 C.ar    1  UNL1        0.0938
     16 C           9.1770   41.9847   10.7003 C.ar    1  UNL1        0.0335
     17 C           7.8220   41.8278   10.9246 C.ar    1  UNL1        0.1187
     18 N           8.8636   41.3716   12.7620 N.ar    1  UNL1       -0.2476
     19 N           7.6655   41.4468   12.2071 N.ar    1  UNL1       -0.1679
     20 N          16.7400   40.7377    9.1358 N.pl3   1  UNL1       -0.2821
     21 H          17.6171   40.2916    9.1061 H       1  UNL1        0.1551
     22 C          16.6139   41.9667    8.4108 C.ar    1  UNL1        0.1526
     23 C          15.4275   43.3783    6.9189 C.ar    1  UNL1        0.1210
     24 C          16.4245   44.3471    7.0417 C.ar    1  UNL1        0.1196
     25 C          17.6098   42.9383    8.5313 C.ar    1  UNL1        0.1332
     26 N          15.5437   42.2110    7.6051 N.ar    1  UNL1       -0.2258
     27 N          17.4938   44.1059    7.8452 N.ar    1  UNL1       -0.2378
@<TRIPOS>BOND
     1    14    18    1
     2    16    17   ar
     3    13    16    1
     4    13    12    1
     5     7    12    1
     6     7     8    1
     7     8     9    1
     8     9    10    1
     9    10    11    1
    10    10     1    1
    11    11    12    1
    12     2     3   ar
    13     3    20    1
    14     4     6   ar
    15     5     1   ar
    16    23    26   ar
    17    24    27   ar
    18    25    22   ar
    19    18    15   ar
    20    18    19   ar
    21    20    22    1
    22    15    16   ar
    23    17    19   ar
    24     1     2   ar
    25     3     6   ar
    26     4     5   ar
    27    22    26   ar
    28    23    24   ar
    29    25    27   ar
    30    20    21    1
@<TRIPOS>MOLECULE
Molport-046-959-955 MCULE-9815740437 PubChem-110097712
 27 30 0 0 0
SMALL
GASTEIGER

@<TRIPOS>ATOM
      1 C          12.3767   40.7022   10.3364 C.ar    1  UNL1       -0.0168
      2 C          13.2176   41.1320    9.3075 C.ar    1  UNL1        0.0302
      3 C          14.5064   40.6034    9.2023 C.ar    1  UNL1        0.1329
      4 C          14.1297   39.2385   11.1144 C.ar    1  UNL1        0.1000
      5 C          12.8362   39.7449   11.2495 C.ar    1  UNL1        0.0165
      6 N          14.9297   39.6736   10.1042 N.ar    1  UNL1       -0.2291
      7 C           8.3572   41.9423   10.6756 C.3     1  UNL1        0.0724
      8 C           8.9087   41.2076   11.8956 C.3     1  UNL1        0.0177
      9 C          10.4385   41.1462   11.8566 C.3     1  UNL1        0.0072
     10 C          10.9987   41.2711   10.4355 C.3     1  UNL1        0.0385
     11 C          10.0545   40.6423    9.4045 C.3     1  UNL1        0.0767
     12 N           8.7057   41.2447    9.4256 N.3     1  UNL1       -0.2686
     13 C           8.5305   42.1507    8.2835 C.3     1  UNL1        0.1023
     14 C           3.8483   43.8414    8.6965 C.3     1  UNL1        0.1537
     15 C           6.0117   42.6551    8.4473 C.ar    1  UNL1        0.0938
     16 C           7.3323   43.0497    8.4072 C.ar    1  UNL1        0.0335
     17 C           7.3561   44.4245    8.5491 C.ar    1  UNL1        0.1187
     18 N           5.2944   43.7801    8.6017 N.ar    1  UNL1       -0.2476
     19 N           6.0805   44.8416    8.6646 N.ar    1  UNL1       -0.1679
     20 N          15.3581   41.0531    8.1418 N.pl3   1  UNL1       -0.2821
     21 H          16.1084   40.4657    7.8943 H       1  UNL1        0.1551
     22 C          15.2230   42.2753    7.4070 C.ar    1  UNL1        0.1526
     23 C          16.0108   44.4323    6.8135 C.ar    1  UNL1        0.1210
     24 C          14.9117   44.6025    5.9706 C.ar    1  UNL1        0.1196
     25 C          14.1243   42.4490    6.5626 C.ar    1  UNL1        0.1332
     26 N          16.1424   43.2741    7.5123 N.ar    1  UNL1       -0.2258
     27 N          13.9925   43.6071    5.8636 N.ar    1  UNL1       -0.2378
@<TRIPOS>BOND
     1    14    18    1
     2    16    17   ar
     3    13    16    1
     4    13    12    1
     5     7    12    1
     6     7     8    1
     7     8     9    1
     8     9    10    1
     9    10    11    1
    10    10     1    1
    11    11    12    1
    12     2     3   ar
    13     3    20    1
    14     4     6   ar
    15     5     1   ar
    16    23    26   ar
    17    24    27   ar
    18    25    22   ar
    19    18    15   ar
    20    18    19   ar
    21    20    22    1
    22    15    16   ar
    23    17    19   ar
    24     1     2   ar
    25     3     6   ar
    26     4     5   ar
    27    22    26   ar
    28    23    24   ar
    29    25    27   ar
    30    20    21    1
@<TRIPOS>MOLECULE
Molport-046-959-955 MCULE-9815740437 PubChem-110097712
 27 30 0 0 0
SMALL
GASTEIGER

@<TRIPOS>ATOM
      1 C           9.9558   41.1393   10.7317 C.ar    1  UNL1       -0.0168
      2 C           8.9207   41.7050    9.9840 C.ar    1  UNL1        0.0302
      3 C           7.7430   42.1002   10.6231 C.ar    1  UNL1        0.1329
      4 C           8.6100   41.3824   12.7193 C.ar    1  UNL1        0.1000
      5 C           9.8003   40.9765   12.1139 C.ar    1  UNL1        0.0165
      6 N           7.6164   41.9301   11.9693 N.ar    1  UNL1       -0.2291
      7 C          13.6984   40.2053    9.0199 C.3     1  UNL1        0.0724
      8 C          13.5754   39.8892   10.5090 C.3     1  UNL1        0.0177
      9 C          12.1091   39.8824   10.9513 C.3     1  UNL1        0.0072
     10 C          11.2125   40.7253   10.0377 C.3     1  UNL1        0.0385
     11 C          11.9678   41.9335    9.4726 C.3     1  UNL1        0.0767
     12 N          13.1727   41.5464    8.7104 N.3     1  UNL1       -0.2686
     13 C          12.9273   41.6650    7.2676 C.3     1  UNL1        0.1023
     14 C          16.9797   44.2700    5.9471 C.3     1  UNL1        0.1537
     15 C          15.1831   42.8471    6.8944 C.ar    1  UNL1        0.0938
     16 C          13.8617   42.6167    6.5747 C.ar    1  UNL1        0.0335
     17 C          13.5651   43.3889    5.4672 C.ar    1  UNL1        0.1187
     18 N          15.6314   43.7372    5.9940 N.ar    1  UNL1       -0.2476
     19 N          14.6801   44.0689    5.1374 N.ar    1  UNL1       -0.1679
     20 N           6.6896   42.6793    9.8439 N.pl3   1  UNL1       -0.2821
     21 H           6.9246   43.4541    9.2839 H       1  UNL1        0.1551
     22 C           5.3270   42.2393    9.8013 C.ar    1  UNL1        0.1526
     23 C           3.6793   40.5678   10.1433 C.ar    1  UNL1        0.1210
     24 C           2.6925   41.4486    9.6985 C.ar    1  UNL1        0.1196
     25 C           4.3370   43.1181    9.3567 C.ar    1  UNL1        0.1332
     26 N           4.9731   40.9816   10.1850 N.ar    1  UNL1       -0.2258
     27 N           3.0429   42.7045    9.3150 N.ar    1  UNL1       -0.2378
@<TRIPOS>BOND
     1    14    18    1
     2    16    17   ar
     3    13    16    1
     4    13    12    1
     5     7    12    1
     6     7     8    1
     7     8     9    1
     8     9    10    1
     9    10    11    1
    10    10     1    1
    11    11    12    1
    12     2     3   ar
    13     3    20    1
    14     4     6   ar
    15     5     1   ar
    16    23    26   ar
    17    24    27   ar
    18    25    22   ar
    19    18    15   ar
    20    18    19   ar
    21    20    22    1
    22    15    16   ar
    23    17    19   ar
    24     1     2   ar
    25     3     6   ar
    26     4     5   ar
    27    22    26   ar
    28    23    24   ar
    29    25    27   ar
    30    20    21    1
@<TRIPOS>MOLECULE
Molport-046-959-955 MCULE-9815740437 PubChem-110097712
 27 30 0 0 0
SMALL
GASTEIGER

@<TRIPOS>ATOM
      1 C          12.1354   40.2752    9.5219 C.ar    1  UNL1       -0.0168
      2 C          13.1154   40.8231    8.6913 C.ar    1  UNL1        0.0302
      3 C          14.4605   40.7328    9.0572 C.ar    1  UNL1        0.1329
      4 C          13.8674   39.5690   11.0458 C.ar    1  UNL1        0.1000
      5 C          12.5143   39.6406   10.7115 C.ar    1  UNL1        0.0165
      6 N          14.8028   40.1108   10.2205 N.ar    1  UNL1       -0.2291
      7 C           8.2082   40.5834    8.0082 C.3     1  UNL1        0.0724
      8 C           9.0206   39.4144    7.4554 C.3     1  UNL1        0.0177
      9 C          10.2538   39.1421    8.3219 C.3     1  UNL1        0.0072
     10 C          10.7006   40.3736    9.1173 C.3     1  UNL1        0.0385
     11 C          10.4203   41.6690    8.3471 C.3     1  UNL1        0.0767
     12 N           8.9921   41.8309    8.0056 N.3     1  UNL1       -0.2686
     13 C           8.3615   42.8179    8.8911 C.3     1  UNL1        0.1023
     14 C           4.5773   40.7618   11.4218 C.3     1  UNL1        0.1537
     15 C           6.2009   41.8290    9.8808 C.ar    1  UNL1        0.0938
     16 C           7.5245   42.2031    9.9777 C.ar    1  UNL1        0.0335
     17 C           7.9564   41.8653   11.2466 C.ar    1  UNL1        0.1187
     18 N           5.8797   41.2951   11.0706 N.ar    1  UNL1       -0.2476
     19 N           6.9143   41.3091   11.8941 N.ar    1  UNL1       -0.1679
     20 N          15.4552   41.2989    8.1955 N.pl3   1  UNL1       -0.2821
     21 H          16.3263   40.8415    8.1608 H       1  UNL1        0.1551
     22 C          15.3041   42.4665    7.3795 C.ar    1  UNL1        0.1526
     23 C          16.0777   44.5761    6.6201 C.ar    1  UNL1        0.1210
     24 C          14.9616   44.6873    5.7898 C.ar    1  UNL1        0.1196
     25 C          14.1883   42.5810    6.5475 C.ar    1  UNL1        0.1332
     26 N          16.2245   43.4698    7.3957 N.ar    1  UNL1       -0.2258
     27 N          14.0414   43.6873    5.7716 N.ar    1  UNL1       -0.2378
@<TRIPOS>BOND
     1    14    18    1
     2    16    17   ar
     3    13    16    1
     4    13    12    1
     5     7    12    1
     6     7     8    1
     7     8     9    1
     8     9    10    1
     9    10    11    1
    10    10     1    1
    11    11    12    1
    12     2     3   ar
    13     3    20    1
    14     4     6   ar
    15     5     1   ar
    16    23    26   ar
    17    24    27   ar
    18    25    22   ar
    19    18    15   ar
    20    18    19   ar
    21    20    22    1
    22    15    16   ar
    23    17    19   ar
    24     1     2   ar
    25     3     6   ar
    26     4     5   ar
    27    22    26   ar
    28    23    24   ar
    29    25    27   ar
    30    20    21    1
@<TRIPOS>MOLECULE
Molport-046-959-955 MCULE-9815740437 PubChem-110097712
 27 30 0 0 0
SMALL
GASTEIGER

@<TRIPOS>ATOM
      1 C          12.2329   40.8426   10.0194 C.ar    1  UNL1       -0.0168
      2 C          13.1077   41.2963    9.0298 C.ar    1  UNL1        0.0302
      3 C          14.4226   40.8256    9.0016 C.ar    1  UNL1        0.1329
      4 C          14.0054   39.4711   10.9126 C.ar    1  UNL1        0.1000
      5 C          12.6851   39.9198   10.9708 C.ar    1  UNL1        0.0165
      6 N          14.8382   39.9285    9.9394 N.ar    1  UNL1       -0.2291
      7 C           8.1556   41.9177   10.1925 C.3     1  UNL1        0.0724
      8 C           8.7520   41.4418   11.5155 C.3     1  UNL1        0.0177
      9 C          10.2827   41.4522   11.4651 C.3     1  UNL1        0.0072
     10 C          10.8275   41.3494   10.0362 C.3     1  UNL1        0.0385
     11 C           9.9118   40.4993    9.1481 C.3     1  UNL1        0.0767
     12 N           8.5333   41.0264    9.0817 N.3     1  UNL1       -0.2686
     13 C           8.3041   41.7035    7.7992 C.3     1  UNL1        0.1023
     14 C          10.0173   39.4407    3.6886 C.3     1  UNL1        0.1537
     15 C           9.4674   40.8010    5.6879 C.ar    1  UNL1        0.0938
     16 C           8.4403   40.7973    6.6078 C.ar    1  UNL1        0.0335
     17 C           7.5792   39.7734    6.2599 C.ar    1  UNL1        0.1187
     18 N           9.1968   39.8055    4.8278 N.ar    1  UNL1       -0.2476
     19 N           8.0764   39.1841    5.1554 N.ar    1  UNL1       -0.1679
     20 N          15.3091   41.2993    7.9807 N.pl3   1  UNL1       -0.2821
     21 H          16.0774   40.7257    7.7573 H       1  UNL1        0.1551
     22 C          15.1849   42.5273    7.2537 C.ar    1  UNL1        0.1526
     23 C          16.0604   44.6187    6.5571 C.ar    1  UNL1        0.1210
     24 C          14.8909   44.8696    5.8382 C.ar    1  UNL1        0.1196
     25 C          14.0159   42.7817    6.5333 C.ar    1  UNL1        0.1332
     26 N          16.1818   43.4548    7.2481 N.ar    1  UNL1       -0.2258
     27 N          13.8943   43.9456    5.8420 N.ar    1  UNL1       -0.2378
@<TRIPOS>BOND
     1    14    18    1
     2    16    17   ar
     3    13    16    1
     4    13    12    1
     5     7    12    1
     6     7     8    1
     7     8     9    1
     8     9    10    1
     9    10    11    1
    10    10     1    1
    11    11    12    1
    12     2     3   ar
    13     3    20    1
    14     4     6   ar
    15     5     1   ar
    16    23    26   ar
    17    24    27   ar
    18    25    22   ar
    19    18    15   ar
    20    18    19   ar
    21    20    22    1
    22    15    16   ar
    23    17    19   ar
    24     1     2   ar
    25     3     6   ar
    26     4     5   ar
    27    22    26   ar
    28    23    24   ar
    29    25    27   ar
    30    20    21    1
@<TRIPOS>MOLECULE
Molport-046-959-955 MCULE-9815740437 PubChem-110097712
 27 30 0 0 0
SMALL
GASTEIGER

@<TRIPOS>ATOM
      1 C          12.9032   40.2544    9.0628 C.ar    1  UNL1       -0.0168
      2 C          13.8185   41.0709    8.3948 C.ar    1  UNL1        0.0302
      3 C          15.1715   41.0168    8.7383 C.ar    1  UNL1        0.1329
      4 C          14.7129   39.3626   10.3858 C.ar    1  UNL1        0.1000
      5 C          13.3541   39.3903   10.0684 C.ar    1  UNL1        0.0165
      6 N          15.5844   40.1679    9.7212 N.ar    1  UNL1       -0.2291
      7 C           8.9369   40.6353    7.6725 C.3     1  UNL1        0.0724
      8 C           9.8928   39.9384    6.7067 C.3     1  UNL1        0.0177
      9 C          11.1723   39.4950    7.4221 C.3     1  UNL1        0.0072
     10 C          11.4596   40.3175    8.6830 C.3     1  UNL1        0.0385
     11 C          10.9810   41.7654    8.5276 C.3     1  UNL1        0.0767
     12 N           9.5366   41.8592    8.2321 N.3     1  UNL1       -0.2686
     13 C           8.7941   42.2763    9.4283 C.3     1  UNL1        0.1023
     14 C           3.9921   43.5636    8.9426 C.3     1  UNL1        0.1537
     15 C           6.2418   42.5792    9.2885 C.ar    1  UNL1        0.0938
     16 C           7.5328   43.0333    9.1198 C.ar    1  UNL1        0.0335
     17 C           7.4551   44.3338    8.6576 C.ar    1  UNL1        0.1187
     18 N           5.4422   43.5949    8.9241 N.ar    1  UNL1       -0.2476
     19 N           6.1496   44.6466    8.5467 N.ar    1  UNL1       -0.1679
     20 N          16.0993   41.8596    8.0447 N.pl3   1  UNL1       -0.2821
     21 H          17.0560   41.6591    8.1618 H       1  UNL1        0.1551
     22 C          15.7688   42.9662    7.1972 C.ar    1  UNL1        0.1526
     23 C          14.2341   44.1243    5.8082 C.ar    1  UNL1        0.1210
     24 C          15.1894   45.1152    5.5778 C.ar    1  UNL1        0.1196
     25 C          16.7224   43.9595    6.9644 C.ar    1  UNL1        0.1332
     26 N          14.5441   43.0729    6.6117 N.ar    1  UNL1       -0.2258
     27 N          16.4126   45.0111    6.1610 N.ar    1  UNL1       -0.2378
@<TRIPOS>BOND
     1    14    18    1
     2    16    17   ar
     3    13    16    1
     4    13    12    1
     5     7    12    1
     6     7     8    1
     7     8     9    1
     8     9    10    1
     9    10    11    1
    10    10     1    1
    11    11    12    1
    12     2     3   ar
    13     3    20    1
    14     4     6   ar
    15     5     1   ar
    16    23    26   ar
    17    24    27   ar
    18    25    22   ar
    19    18    15   ar
    20    18    19   ar
    21    20    22    1
    22    15    16   ar
    23    17    19   ar
    24     1     2   ar
    25     3     6   ar
    26     4     5   ar
    27    22    26   ar
    28    23    24   ar
    29    25    27   ar
    30    20    21    1
