@<TRIPOS>MOLECULE
MolPort-019-932-358 35425025 CSSS00159291589 MCULE-9394894356 PubChem-45783427 ZINC000035425025
 33 36 0 0 0
SMALL
GASTEIGER

@<TRIPOS>ATOM
      1 C          14.9662   39.2006   10.7265 C.3     1  UNL1        0.1378
      2 C          15.9894   38.2001   11.2042 C.3     1  UNL1        0.0270
      3 C          15.1516   37.0277   11.6494 C.3     1  UNL1        0.0192
      4 C          13.7699   37.2483   11.0449 C.3     1  UNL1        0.0728
      5 N          13.7974   38.4613   10.2335 N.3     1  UNL1       -0.2626
      6 C          15.6810   41.7025    8.3111 C.ar    1  UNL1        0.2078
      7 C          15.5180   40.2154    9.7671 C.ar    1  UNL1        0.2511
      8 O          16.7917   40.3840    9.5112 O.2     1  UNL1       -0.3356
      9 N          16.9352   41.3056    8.6093 N.ar    1  UNL1       -0.0558
     10 N          14.7492   41.0327    9.0242 N.ar    1  UNL1       -0.1895
     11 C          14.1432   42.7311    6.5755 C.ar    1  UNL1        0.2279
     12 C          15.3485   42.7396    7.3101 C.ar    1  UNL1        0.0922
     13 C          16.2626   43.7755    7.0801 C.ar    1  UNL1        0.0094
     14 C          15.9855   44.7718    6.1459 C.ar    1  UNL1        0.0210
     15 C          14.7850   44.7255    5.4401 C.ar    1  UNL1        0.1021
     16 N          13.9007   43.7193    5.6670 N.ar    1  UNL1       -0.2101
     17 O          13.2006   41.7180    6.7719 O.3     1  UNL1       -0.4574
     18 C          11.8210   41.9012    6.4859 C.3     1  UNL1        0.2390
     19 C          11.3527   40.8366    5.5125 C.3     1  UNL1        0.1895
     20 C           9.5686   39.8569    4.6618 C.3     1  UNL1        0.1743
     21 O          10.0294   41.0809    5.1447 O.3     1  UNL1       -0.3471
     22 C          13.9839   38.0170    8.8505 C.3     1  UNL1        0.0995
     23 C          14.8628   36.8130    8.8090 C.ar    1  UNL1       -0.0061
     24 C          14.3005   35.5408    8.9433 C.ar    1  UNL1       -0.0016
     25 C          15.1192   34.4077    8.9191 C.ar    1  UNL1        0.0144
     26 C          16.5080   34.5386    8.7639 C.ar    1  UNL1        0.0503
     27 C          17.0646   35.8156    8.6347 C.ar    1  UNL1        0.0144
     28 C          16.2474   36.9489    8.6590 C.ar    1  UNL1       -0.0016
     29 C          17.4443   32.3955    7.7153 C.2     1  UNL1        0.2266
     30 C          18.4276   31.2893    7.8467 C.3     1  UNL1        0.0949
     31 O          16.6856   32.4313    6.7110 O.2     1  UNL1       -0.2748
     32 N          17.3800   33.4006    8.7350 N.am    1  UNL1       -0.2839
     33 H          17.9984   33.2992    9.4943 H       1  UNL1        0.1549
@<TRIPOS>BOND
     1    20    21    1
     2    19    21    1
     3    19    18    1
     4    18    17    1
     5    11    17    1
     6    11    16   ar
     7    12    13   ar
     8    12     6    1
     9    14    15   ar
    10     6    10   ar
    11     7     8   ar
    12     1     7    1
    13     1     2    1
    14     1     5    1
    15     2     3    1
    16     3     4    1
    17     4     5    1
    18    22     5    1
    19    22    23    1
    20    24    25   ar
    21    26    32    1
    22    26    27   ar
    23    30    29    1
    24    28    23   ar
    25     9     8   ar
    26    32    29   am
    27    11    12   ar
    28    13    14   ar
    29    15    16   ar
    30     6     9   ar
    31     7    10   ar
    32    23    24   ar
    33    25    26   ar
    34    29    31    2
    35    27    28   ar
    36    32    33    1
@<TRIPOS>MOLECULE
MolPort-019-932-358 35425025 CSSS00159291589 MCULE-9394894356 PubChem-45783427 ZINC000035425025
 33 36 0 0 0
SMALL
GASTEIGER

@<TRIPOS>ATOM
      1 C          14.6515   38.2710   10.7216 C.3     1  UNL1        0.1378
      2 C          14.8714   36.8867   10.1633 C.3     1  UNL1        0.0270
      3 C          13.5579   36.1920   10.4217 C.3     1  UNL1        0.0192
      4 C          12.5549   37.2971   10.7315 C.3     1  UNL1        0.0728
      5 N          13.2226   38.5892   10.6086 N.3     1  UNL1       -0.2626
      6 C          16.3258   40.9355    9.0779 C.ar    1  UNL1        0.2078
      7 C          15.5732   39.3067   10.1449 C.ar    1  UNL1        0.2511
      8 O          16.8764   39.3016   10.2776 O.2     1  UNL1       -0.3356
      9 N          17.3830   40.3041    9.6283 N.ar    1  UNL1       -0.0558
     10 N          15.1553   40.3323    9.3805 N.ar    1  UNL1       -0.1895
     11 C          15.3691   42.5718    7.3919 C.ar    1  UNL1        0.2279
     12 C          16.4229   42.1414    8.2266 C.ar    1  UNL1        0.0922
     13 C          17.6057   42.8911    8.2483 C.ar    1  UNL1        0.0094
     14 C          17.7357   44.0340    7.4614 C.ar    1  UNL1        0.0210
     15 C          16.6725   44.4235    6.6494 C.ar    1  UNL1        0.1021
     16 N          15.5266   43.6938    6.6322 N.ar    1  UNL1       -0.2101
     17 O          14.1698   41.8560    7.3382 O.3     1  UNL1       -0.4574
     18 C          12.9543   42.4467    6.8998 C.3     1  UNL1        0.2390
     19 C          12.2008   41.4734    6.0137 C.3     1  UNL1        0.1895
     20 C          10.2667   40.8614    5.1471 C.3     1  UNL1        0.1743
     21 O          10.8620   41.8546    5.9237 O.3     1  UNL1       -0.3471
     22 C          12.8856   39.0918    9.2749 C.3     1  UNL1        0.0995
     23 C          11.6580   39.9363    9.3362 C.ar    1  UNL1       -0.0061
     24 C          10.5125   39.5439    8.6386 C.ar    1  UNL1       -0.0016
     25 C           9.3619   40.3371    8.6800 C.ar    1  UNL1        0.0144
     26 C           9.3492   41.5315    9.4170 C.ar    1  UNL1        0.0503
     27 C          10.5011   41.9205   10.1092 C.ar    1  UNL1        0.0144
     28 C          11.6519   41.1288   10.0684 C.ar    1  UNL1       -0.0016
     29 C           7.5459   43.0326    8.3857 C.2     1  UNL1        0.2266
     30 C           6.3363   43.8565    8.6422 C.3     1  UNL1        0.0949
     31 O           7.9845   42.9289    7.2099 O.2     1  UNL1       -0.2748
     32 N           8.1890   42.3715    9.4828 N.am    1  UNL1       -0.2839
     33 H           7.7931   42.5083   10.3738 H       1  UNL1        0.1549
@<TRIPOS>BOND
     1    20    21    1
     2    19    21    1
     3    19    18    1
     4    18    17    1
     5    11    17    1
     6    11    16   ar
     7    12    13   ar
     8    12     6    1
     9    14    15   ar
    10     6    10   ar
    11     7     8   ar
    12     1     7    1
    13     1     2    1
    14     1     5    1
    15     2     3    1
    16     3     4    1
    17     4     5    1
    18    22     5    1
    19    22    23    1
    20    24    25   ar
    21    26    32    1
    22    26    27   ar
    23    30    29    1
    24    28    23   ar
    25     9     8   ar
    26    32    29   am
    27    11    12   ar
    28    13    14   ar
    29    15    16   ar
    30     6     9   ar
    31     7    10   ar
    32    23    24   ar
    33    25    26   ar
    34    29    31    2
    35    27    28   ar
    36    32    33    1
@<TRIPOS>MOLECULE
MolPort-019-932-358 35425025 CSSS00159291589 MCULE-9394894356 PubChem-45783427 ZINC000035425025
 33 36 0 0 0
SMALL
GASTEIGER

@<TRIPOS>ATOM
      1 C          12.1568   36.9245    9.4514 C.3     1  UNL1        0.1378
      2 C          11.5884   36.0842   10.5681 C.3     1  UNL1        0.0270
      3 C          12.7772   35.2904   11.0491 C.3     1  UNL1        0.0192
      4 C          14.0051   35.9902   10.4786 C.3     1  UNL1        0.0728
      5 N          13.5744   37.1740    9.7414 N.3     1  UNL1       -0.2626
      6 C          10.5526   40.0834    9.2233 C.ar    1  UNL1        0.2078
      7 C          11.3505   38.1557    9.1533 C.ar    1  UNL1        0.2511
      8 O          10.3786   38.2162    8.2772 O.2     1  UNL1       -0.3356
      9 N           9.8568   39.4040    8.2887 N.ar    1  UNL1       -0.0558
     10 N          11.5114   39.3253    9.7990 N.ar    1  UNL1       -0.1895
     11 C          11.0644   42.5647    9.0939 C.ar    1  UNL1        0.2279
     12 C          10.2966   41.4919    9.5960 C.ar    1  UNL1        0.0922
     13 C           9.2494   41.7778   10.4809 C.ar    1  UNL1        0.0094
     14 C           8.9759   43.0920   10.8556 C.ar    1  UNL1        0.0210
     15 C           9.7592   44.1220   10.3389 C.ar    1  UNL1        0.1021
     16 N          10.7735   43.8402    9.4800 N.ar    1  UNL1       -0.2101
     17 O          12.1188   42.3278    8.2075 O.3     1  UNL1       -0.4574
     18 C          12.9119   43.3798    7.6755 C.3     1  UNL1        0.2390
     19 C          13.2930   43.0611    6.2426 C.3     1  UNL1        0.1895
     20 C          14.9527   44.2343    5.3850 C.3     1  UNL1        0.1743
     21 O          13.5686   44.2418    5.5525 O.3     1  UNL1       -0.3471
     22 C          13.7471   38.3040   10.6570 C.3     1  UNL1        0.0995
     23 C          14.7808   39.2414   10.1313 C.ar    1  UNL1       -0.0061
     24 C          14.4351   40.1718    9.1475 C.ar    1  UNL1       -0.0016
     25 C          15.4017   41.0450    8.6396 C.ar    1  UNL1        0.0144
     26 C          16.7232   40.9920    9.1093 C.ar    1  UNL1        0.0503
     27 C          17.0633   40.0548   10.0909 C.ar    1  UNL1        0.0144
     28 C          16.0982   39.1813   10.5991 C.ar    1  UNL1       -0.0016
     29 C          17.5899   43.2539    8.2719 C.2     1  UNL1        0.2266
     30 C          18.7683   44.0157    7.7832 C.3     1  UNL1        0.0949
     31 O          16.4788   43.8369    8.3790 O.2     1  UNL1       -0.2748
     32 N          17.7421   41.8701    8.6124 N.am    1  UNL1       -0.2839
     33 H          18.6390   41.4822    8.4927 H       1  UNL1        0.1549
@<TRIPOS>BOND
     1    20    21    1
     2    19    21    1
     3    19    18    1
     4    18    17    1
     5    11    17    1
     6    11    16   ar
     7    12    13   ar
     8    12     6    1
     9    14    15   ar
    10     6    10   ar
    11     7     8   ar
    12     1     7    1
    13     1     2    1
    14     1     5    1
    15     2     3    1
    16     3     4    1
    17     4     5    1
    18    22     5    1
    19    22    23    1
    20    24    25   ar
    21    26    32    1
    22    26    27   ar
    23    30    29    1
    24    28    23   ar
    25     9     8   ar
    26    32    29   am
    27    11    12   ar
    28    13    14   ar
    29    15    16   ar
    30     6     9   ar
    31     7    10   ar
    32    23    24   ar
    33    25    26   ar
    34    29    31    2
    35    27    28   ar
    36    32    33    1
@<TRIPOS>MOLECULE
MolPort-019-932-358 35425025 CSSS00159291589 MCULE-9394894356 PubChem-45783427 ZINC000035425025
 33 36 0 0 0
SMALL
GASTEIGER

@<TRIPOS>ATOM
      1 C          13.5806   38.9352    9.8452 C.3     1  UNL1        0.1378
      2 C          13.4427   37.7336    8.9432 C.3     1  UNL1        0.0270
      3 C          12.1923   37.0582    9.4483 C.3     1  UNL1        0.0192
      4 C          11.4798   38.0913   10.3131 C.3     1  UNL1        0.0728
      5 N          12.2374   39.3385   10.2800 N.3     1  UNL1       -0.2626
      6 C          15.0263   41.6879    8.1315 C.ar    1  UNL1        0.2078
      7 C          14.4078   40.0403    9.2544 C.ar    1  UNL1        0.2511
      8 O          15.6936   40.1956    9.4505 O.2     1  UNL1       -0.3356
      9 N          16.1169   41.2152    8.7690 N.ar    1  UNL1       -0.0558
     10 N          13.9178   40.9680    8.4116 N.ar    1  UNL1       -0.1895
     11 C          13.8728   43.2961    6.5446 C.ar    1  UNL1        0.2279
     12 C          15.0313   42.8504    7.2167 C.ar    1  UNL1        0.0922
     13 C          16.2314   43.5414    7.0076 C.ar    1  UNL1        0.0094
     14 C          16.2769   44.6421    6.1540 C.ar    1  UNL1        0.0210
     15 C          15.1112   45.0485    5.5079 C.ar    1  UNL1        0.1021
     16 N          13.9489   44.3758    5.7143 N.ar    1  UNL1       -0.2101
     17 O          12.6525   42.6385    6.7231 O.3     1  UNL1       -0.4574
     18 C          12.1056   41.7758    5.7356 C.3     1  UNL1        0.2390
     19 C          10.6115   41.6300    5.9518 C.3     1  UNL1        0.1895
     20 C          10.8122   40.1054    4.3701 C.3     1  UNL1        0.1743
     21 O          10.0073   41.1663    4.7831 O.3     1  UNL1       -0.3471
     22 C          11.5784   40.1841    9.2822 C.3     1  UNL1        0.0995
     23 C          10.2703   40.6746    9.8038 C.ar    1  UNL1       -0.0061
     24 C          10.1406   40.9921   11.1585 C.ar    1  UNL1       -0.0016
     25 C           8.9139   41.4396   11.6580 C.ar    1  UNL1        0.0144
     26 C           7.8056   41.5698   10.8068 C.ar    1  UNL1        0.0503
     27 C           7.9414   41.2456    9.4525 C.ar    1  UNL1        0.0144
     28 C           9.1670   40.7979    8.9521 C.ar    1  UNL1       -0.0016
     29 C           5.2444   41.6564   10.7705 C.2     1  UNL1        0.2266
     30 C           4.0232   42.2194   11.4025 C.3     1  UNL1        0.0949
     31 O           5.1276   40.8656    9.7975 O.2     1  UNL1       -0.2748
     32 N           6.5316   42.0246   11.2821 N.am    1  UNL1       -0.2839
     33 H           6.5421   42.6551   12.0381 H       1  UNL1        0.1549
@<TRIPOS>BOND
     1    20    21    1
     2    19    21    1
     3    19    18    1
     4    18    17    1
     5    11    17    1
     6    11    16   ar
     7    12    13   ar
     8    12     6    1
     9    14    15   ar
    10     6    10   ar
    11     7     8   ar
    12     1     7    1
    13     1     2    1
    14     1     5    1
    15     2     3    1
    16     3     4    1
    17     4     5    1
    18    22     5    1
    19    22    23    1
    20    24    25   ar
    21    26    32    1
    22    26    27   ar
    23    30    29    1
    24    28    23   ar
    25     9     8   ar
    26    32    29   am
    27    11    12   ar
    28    13    14   ar
    29    15    16   ar
    30     6     9   ar
    31     7    10   ar
    32    23    24   ar
    33    25    26   ar
    34    29    31    2
    35    27    28   ar
    36    32    33    1
@<TRIPOS>MOLECULE
MolPort-019-932-358 35425025 CSSS00159291589 MCULE-9394894356 PubChem-45783427 ZINC000035425025
 33 36 0 0 0
SMALL
GASTEIGER

@<TRIPOS>ATOM
      1 C           7.4993   42.2920    9.7417 C.3     1  UNL1        0.1378
      2 C           6.9955   40.9894    9.1710 C.3     1  UNL1        0.0270
      3 C           5.6179   41.3380    8.6656 C.3     1  UNL1        0.0192
      4 C           5.5679   42.8601    8.6052 C.3     1  UNL1        0.0728
      5 N           6.8686   43.3916    9.0006 N.3     1  UNL1       -0.2626
      6 C          11.0187   41.8650    9.9318 C.ar    1  UNL1        0.2078
      7 C           8.9961   42.3719    9.8308 C.ar    1  UNL1        0.2511
      8 O           9.6727   43.4741   10.0388 O.2     1  UNL1       -0.3356
      9 N          10.9392   43.2003   10.1054 N.ar    1  UNL1       -0.0558
     10 N           9.8047   41.2989    9.7554 N.ar    1  UNL1       -0.1895
     11 C          13.2309   41.1688    8.9040 C.ar    1  UNL1        0.2279
     12 C          12.2812   41.0942    9.9456 C.ar    1  UNL1        0.0922
     13 C          12.5506   40.2569   11.0354 C.ar    1  UNL1        0.0094
     14 C          13.7293   39.5151   11.0858 C.ar    1  UNL1        0.0210
     15 C          14.6398   39.6156   10.0359 C.ar    1  UNL1        0.1021
     16 N          14.3749   40.4298    8.9810 N.ar    1  UNL1       -0.2101
     17 O          13.0056   41.9916    7.7969 O.3     1  UNL1       -0.4574
     18 C          14.0471   42.3623    6.9043 C.3     1  UNL1        0.2390
     19 C          13.5614   43.4589    5.9759 C.3     1  UNL1        0.1895
     20 C          15.1867   44.9343    5.7569 C.3     1  UNL1        0.1743
     21 O          14.5929   43.8455    5.1200 O.3     1  UNL1       -0.3471
     22 C           7.5815   43.6811    7.7544 C.3     1  UNL1        0.0995
     23 C           7.9769   42.4119    7.0788 C.ar    1  UNL1       -0.0061
     24 C           9.3218   42.0335    7.0492 C.ar    1  UNL1       -0.0016
     25 C           9.7024   40.8519    6.4060 C.ar    1  UNL1        0.0144
     26 C           8.7406   40.0408    5.7839 C.ar    1  UNL1        0.0503
     27 C           7.3966   40.4281    5.8134 C.ar    1  UNL1        0.0144
     28 C           7.0150   41.6091    6.4557 C.ar    1  UNL1       -0.0016
     29 C           9.3420   38.6565    3.7125 C.2     1  UNL1        0.2266
     30 C           9.7116   37.3137    3.1948 C.3     1  UNL1        0.0949
     31 O           9.2552   39.6245    2.9119 O.2     1  UNL1       -0.2748
     32 N           9.0923   38.8228    5.1140 N.am    1  UNL1       -0.2839
     33 H           9.1703   38.0174    5.6748 H       1  UNL1        0.1549
@<TRIPOS>BOND
     1    20    21    1
     2    19    21    1
     3    19    18    1
     4    18    17    1
     5    11    17    1
     6    11    16   ar
     7    12    13   ar
     8    12     6    1
     9    14    15   ar
    10     6    10   ar
    11     7     8   ar
    12     1     7    1
    13     1     2    1
    14     1     5    1
    15     2     3    1
    16     3     4    1
    17     4     5    1
    18    22     5    1
    19    22    23    1
    20    24    25   ar
    21    26    32    1
    22    26    27   ar
    23    30    29    1
    24    28    23   ar
    25     9     8   ar
    26    32    29   am
    27    11    12   ar
    28    13    14   ar
    29    15    16   ar
    30     6     9   ar
    31     7    10   ar
    32    23    24   ar
    33    25    26   ar
    34    29    31    2
    35    27    28   ar
    36    32    33    1
@<TRIPOS>MOLECULE
MolPort-019-932-358 35425025 CSSS00159291589 MCULE-9394894356 PubChem-45783427 ZINC000035425025
 33 36 0 0 0
SMALL
GASTEIGER

@<TRIPOS>ATOM
      1 C          14.8971   39.1830   10.8766 C.3     1  UNL1        0.1378
      2 C          15.8445   38.0650   11.2354 C.3     1  UNL1        0.0270
      3 C          14.9292   36.9816   11.7486 C.3     1  UNL1        0.0192
      4 C          13.5277   37.3670   11.2902 C.3     1  UNL1        0.0728
      5 N          13.6098   38.5886   10.4955 N.3     1  UNL1       -0.2626
      6 C          15.6411   41.6262    8.4104 C.ar    1  UNL1        0.2078
      7 C          15.4607   40.1535    9.8789 C.ar    1  UNL1        0.2511
      8 O          16.7235   40.2225    9.5374 O.2     1  UNL1       -0.3356
      9 N          16.8776   41.1319    8.6250 N.ar    1  UNL1       -0.0558
     10 N          14.7099   41.0299    9.1867 N.ar    1  UNL1       -0.1895
     11 C          14.0050   42.9754    7.0184 C.ar    1  UNL1        0.2279
     12 C          15.3241   42.6881    7.4306 C.ar    1  UNL1        0.0922
     13 C          16.3718   43.4434    6.8890 C.ar    1  UNL1        0.0094
     14 C          16.1139   44.4532    5.9638 C.ar    1  UNL1        0.0210
     15 C          14.7976   44.7036    5.5817 C.ar    1  UNL1        0.1021
     16 N          13.7842   43.9691    6.1102 N.ar    1  UNL1       -0.2101
     17 O          12.9275   42.2487    7.5325 O.3     1  UNL1       -0.4574
     18 C          11.7313   42.8767    7.9722 C.3     1  UNL1        0.2390
     19 C          11.4371   42.4747    9.4047 C.3     1  UNL1        0.1895
     20 C           9.6817   43.1627   10.5499 C.3     1  UNL1        0.1743
     21 O          10.9406   43.5704   10.1111 O.3     1  UNL1       -0.3471
     22 C          13.6070   38.1594    9.0952 C.3     1  UNL1        0.0995
     23 C          12.2694   38.4034    8.4830 C.ar    1  UNL1       -0.0061
     24 C          12.1623   39.2276    7.3595 C.ar    1  UNL1       -0.0016
     25 C          10.9101   39.4722    6.7878 C.ar    1  UNL1        0.0144
     26 C           9.7540   38.8970    7.3377 C.ar    1  UNL1        0.0503
     27 C           9.8681   38.0766    8.4653 C.ar    1  UNL1        0.0144
     28 C          11.1190   37.8316    9.0379 C.ar    1  UNL1       -0.0016
     29 C           7.5009   40.1108    7.2001 C.2     1  UNL1        0.2266
     30 C           6.1994   40.2124    6.4906 C.3     1  UNL1        0.0949
     31 O           7.7454   40.8922    8.1568 O.2     1  UNL1       -0.2748
     32 N           8.4529   39.1250    6.7802 N.am    1  UNL1       -0.2839
     33 H           8.1857   38.5443    6.0314 H       1  UNL1        0.1549
@<TRIPOS>BOND
     1    20    21    1
     2    19    21    1
     3    19    18    1
     4    18    17    1
     5    11    17    1
     6    11    16   ar
     7    12    13   ar
     8    12     6    1
     9    14    15   ar
    10     6    10   ar
    11     7     8   ar
    12     1     7    1
    13     1     2    1
    14     1     5    1
    15     2     3    1
    16     3     4    1
    17     4     5    1
    18    22     5    1
    19    22    23    1
    20    24    25   ar
    21    26    32    1
    22    26    27   ar
    23    30    29    1
    24    28    23   ar
    25     9     8   ar
    26    32    29   am
    27    11    12   ar
    28    13    14   ar
    29    15    16   ar
    30     6     9   ar
    31     7    10   ar
    32    23    24   ar
    33    25    26   ar
    34    29    31    2
    35    27    28   ar
    36    32    33    1
@<TRIPOS>MOLECULE
MolPort-019-932-358 35425025 CSSS00159291589 MCULE-9394894356 PubChem-45783427 ZINC000035425025
 33 36 0 0 0
SMALL
GASTEIGER

@<TRIPOS>ATOM
      1 C          11.5290   39.6678    7.4472 C.3     1  UNL1        0.1378
      2 C          10.6920   39.2144    6.2766 C.3     1  UNL1        0.0270
      3 C           9.4912   38.5776    6.9304 C.3     1  UNL1        0.0192
      4 C           9.5068   39.0476    8.3801 C.3     1  UNL1        0.0728
      5 N          10.6277   39.9635    8.5679 N.3     1  UNL1       -0.2626
      6 C          14.1434   42.0461    7.1116 C.ar    1  UNL1        0.2078
      7 C          12.4924   40.7687    7.1085 C.ar    1  UNL1        0.2511
      8 O          12.2618   41.7191    6.2371 O.2     1  UNL1       -0.3356
      9 N          13.2700   42.5352    6.2076 N.ar    1  UNL1       -0.0558
     10 N          13.6867   40.9236    7.7090 N.ar    1  UNL1       -0.1895
     11 C          16.3401   42.1150    8.3784 C.ar    1  UNL1        0.2279
     12 C          15.4479   42.6652    7.4331 C.ar    1  UNL1        0.0922
     13 C          15.8181   43.8438    6.7734 C.ar    1  UNL1        0.0094
     14 C          17.0392   44.4569    7.0479 C.ar    1  UNL1        0.0210
     15 C          17.8904   43.8826    7.9897 C.ar    1  UNL1        0.1021
     16 N          17.5277   42.7386    8.6266 N.ar    1  UNL1       -0.2101
     17 O          16.0139   40.9396    9.0606 O.3     1  UNL1       -0.4574
     18 C          16.9411   40.2717    9.9049 C.3     1  UNL1        0.2390
     19 C          16.3768   38.9284   10.3260 C.3     1  UNL1        0.1895
     20 C          16.0503   37.0071    9.2924 C.3     1  UNL1        0.1743
     21 O          17.0520   37.9030    9.6636 O.3     1  UNL1       -0.3471
     22 C          10.0669   41.3128    8.4678 C.3     1  UNL1        0.0995
     23 C           8.7865   41.3975    9.2276 C.ar    1  UNL1       -0.0061
     24 C           7.5699   41.3305    8.5432 C.ar    1  UNL1       -0.0016
     25 C           6.3652   41.4228    9.2467 C.ar    1  UNL1        0.0144
     26 C           6.3679   41.5867   10.6406 C.ar    1  UNL1        0.0503
     27 C           7.5896   41.6577   11.3187 C.ar    1  UNL1        0.0144
     28 C           8.7944   41.5658   10.6167 C.ar    1  UNL1       -0.0016
     29 C           3.9221   42.2800   10.9661 C.2     1  UNL1        0.2266
     30 C           2.7546   42.2785   11.8852 C.3     1  UNL1        0.0949
     31 O           3.8095   42.8019    9.8256 O.2     1  UNL1       -0.2748
     32 N           5.1534   41.6861   11.3964 N.am    1  UNL1       -0.2839
     33 H           5.1668   41.3071   12.3049 H       1  UNL1        0.1549
@<TRIPOS>BOND
     1    20    21    1
     2    19    21    1
     3    19    18    1
     4    18    17    1
     5    11    17    1
     6    11    16   ar
     7    12    13   ar
     8    12     6    1
     9    14    15   ar
    10     6    10   ar
    11     7     8   ar
    12     1     7    1
    13     1     2    1
    14     1     5    1
    15     2     3    1
    16     3     4    1
    17     4     5    1
    18    22     5    1
    19    22    23    1
    20    24    25   ar
    21    26    32    1
    22    26    27   ar
    23    30    29    1
    24    28    23   ar
    25     9     8   ar
    26    32    29   am
    27    11    12   ar
    28    13    14   ar
    29    15    16   ar
    30     6     9   ar
    31     7    10   ar
    32    23    24   ar
    33    25    26   ar
    34    29    31    2
    35    27    28   ar
    36    32    33    1
@<TRIPOS>MOLECULE
MolPort-019-932-358 35425025 CSSS00159291589 MCULE-9394894356 PubChem-45783427 ZINC000035425025
 33 36 0 0 0
SMALL
GASTEIGER

@<TRIPOS>ATOM
      1 C           9.5658   38.9079    7.2455 C.3     1  UNL1        0.1378
      2 C           9.7102   38.2686    8.6045 C.3     1  UNL1        0.0270
      3 C          11.1858   37.9705    8.6963 C.3     1  UNL1        0.0192
      4 C          11.8476   38.7955    7.5989 C.3     1  UNL1        0.0728
      5 N          10.8259   39.5891    6.9231 N.3     1  UNL1       -0.2626
      6 C           6.6634   40.9315    7.5375 C.ar    1  UNL1        0.2078
      7 C           8.3376   39.7608    7.1083 C.ar    1  UNL1        0.2511
      8 O           7.7254   40.0097    5.9772 O.2     1  UNL1       -0.3356
      9 N           6.6769   40.7398    6.2024 N.ar    1  UNL1       -0.0558
     10 N           7.7018   40.3239    8.1521 N.ar    1  UNL1       -0.1895
     11 C           5.6858   43.1063    8.4035 C.ar    1  UNL1        0.2279
     12 C           5.6289   41.7031    8.2605 C.ar    1  UNL1        0.0922
     13 C           4.5460   41.0182    8.8258 C.ar    1  UNL1        0.0094
     14 C           3.5505   41.7094    9.5140 C.ar    1  UNL1        0.0210
     15 C           3.6453   43.0943    9.6344 C.ar    1  UNL1        0.1021
     16 N           4.6971   43.7548    9.0837 N.ar    1  UNL1       -0.2101
     17 O           6.7469   43.8322    7.8554 O.3     1  UNL1       -0.4574
     18 C           7.6553   44.5705    8.6606 C.3     1  UNL1        0.2390
     19 C           8.4490   43.6232    9.5397 C.3     1  UNL1        0.1895
     20 C          10.4238   43.2634   10.4547 C.3     1  UNL1        0.1743
     21 O           9.5572   44.2850   10.0687 O.3     1  UNL1       -0.3471
     22 C          10.8877   40.9228    7.5253 C.3     1  UNL1        0.0995
     23 C          12.2735   41.4660    7.4360 C.ar    1  UNL1       -0.0061
     24 C          12.6063   42.3471    6.4036 C.ar    1  UNL1       -0.0016
     25 C          13.9070   42.8502    6.3050 C.ar    1  UNL1        0.0144
     26 C          14.8867   42.4729    7.2365 C.ar    1  UNL1        0.0503
     27 C          14.5477   41.5867    8.2648 C.ar    1  UNL1        0.0144
     28 C          13.2480   41.0829    8.3643 C.ar    1  UNL1       -0.0016
     29 C          16.7814   43.8163    6.1530 C.2     1  UNL1        0.2266
     30 C          18.2010   44.2431    6.2542 C.3     1  UNL1        0.0949
     31 O          16.0866   44.2083    5.1787 O.2     1  UNL1       -0.2748
     32 N          16.2310   42.9669    7.1678 N.am    1  UNL1       -0.2839
     33 H          16.8389   42.6943    7.8926 H       1  UNL1        0.1549
@<TRIPOS>BOND
     1    20    21    1
     2    19    21    1
     3    19    18    1
     4    18    17    1
     5    11    17    1
     6    11    16   ar
     7    12    13   ar
     8    12     6    1
     9    14    15   ar
    10     6    10   ar
    11     7     8   ar
    12     1     7    1
    13     1     2    1
    14     1     5    1
    15     2     3    1
    16     3     4    1
    17     4     5    1
    18    22     5    1
    19    22    23    1
    20    24    25   ar
    21    26    32    1
    22    26    27   ar
    23    30    29    1
    24    28    23   ar
    25     9     8   ar
    26    32    29   am
    27    11    12   ar
    28    13    14   ar
    29    15    16   ar
    30     6     9   ar
    31     7    10   ar
    32    23    24   ar
    33    25    26   ar
    34    29    31    2
    35    27    28   ar
    36    32    33    1
@<TRIPOS>MOLECULE
MolPort-019-932-358 35425025 CSSS00159291589 MCULE-9394894356 PubChem-45783427 ZINC000035425025
 33 36 0 0 0
SMALL
GASTEIGER

@<TRIPOS>ATOM
      1 C           8.9459   40.6511    5.4582 C.3     1  UNL1        0.1378
      2 C           8.7131   39.1669    5.3200 C.3     1  UNL1        0.0270
      3 C           9.9826   38.6719    4.6734 C.3     1  UNL1        0.0192
      4 C          11.0023   39.7918    4.8440 C.3     1  UNL1        0.0728
      5 N          10.3894   40.8772    5.6035 N.3     1  UNL1       -0.2626
      6 C           6.7859   41.6036    8.1099 C.ar    1  UNL1        0.2078
      7 C           8.0992   41.2979    6.5163 C.ar    1  UNL1        0.2511
      8 O           7.9039   42.5883    6.6292 O.2     1  UNL1       -0.3356
      9 N           7.0920   42.8201    7.6142 N.ar    1  UNL1       -0.0558
     10 N           7.4044   40.6073    7.4389 N.ar    1  UNL1       -0.1895
     11 C           6.3102   41.3368   10.5873 C.ar    1  UNL1        0.2279
     12 C           5.8687   41.3712    9.2470 C.ar    1  UNL1        0.0922
     13 C           4.5058   41.1793    8.9883 C.ar    1  UNL1        0.0094
     14 C           3.6097   40.9583   10.0325 C.ar    1  UNL1        0.0210
     15 C           4.0865   40.9296   11.3414 C.ar    1  UNL1        0.1021
     16 N           5.4094   41.1172   11.5880 N.ar    1  UNL1       -0.2101
     17 O           7.6608   41.5241   10.8939 O.3     1  UNL1       -0.4574
     18 C           8.5218   42.3048   10.0766 C.3     1  UNL1        0.2390
     19 C           9.8913   42.4030   10.7207 C.3     1  UNL1        0.1895
     20 C           9.3561   44.4376   10.0570 C.3     1  UNL1        0.1743
     21 O          10.4353   43.6659   10.4855 O.3     1  UNL1       -0.3471
     22 C          10.8270   40.6965    6.9895 C.3     1  UNL1        0.0995
     23 C          12.2391   41.1487    7.1482 C.ar    1  UNL1       -0.0061
     24 C          13.0270   40.6120    8.1700 C.ar    1  UNL1       -0.0016
     25 C          14.3476   41.0407    8.3340 C.ar    1  UNL1        0.0144
     26 C          14.8897   42.0129    7.4791 C.ar    1  UNL1        0.0503
     27 C          14.0938   42.5493    6.4612 C.ar    1  UNL1        0.0144
     28 C          12.7736   42.1218    6.2964 C.ar    1  UNL1       -0.0016
     29 C          16.7103   43.8155    7.4071 C.2     1  UNL1        0.2266
     30 C          18.1503   44.1187    7.6119 C.3     1  UNL1        0.0949
     31 O          15.9291   44.7378    7.0541 O.2     1  UNL1       -0.2748
     32 N          16.2391   42.4781    7.6163 N.am    1  UNL1       -0.2839
     33 H          16.9115   41.8098    7.8818 H       1  UNL1        0.1549
@<TRIPOS>BOND
     1    20    21    1
     2    19    21    1
     3    19    18    1
     4    18    17    1
     5    11    17    1
     6    11    16   ar
     7    12    13   ar
     8    12     6    1
     9    14    15   ar
    10     6    10   ar
    11     7     8   ar
    12     1     7    1
    13     1     2    1
    14     1     5    1
    15     2     3    1
    16     3     4    1
    17     4     5    1
    18    22     5    1
    19    22    23    1
    20    24    25   ar
    21    26    32    1
    22    26    27   ar
    23    30    29    1
    24    28    23   ar
    25     9     8   ar
    26    32    29   am
    27    11    12   ar
    28    13    14   ar
    29    15    16   ar
    30     6     9   ar
    31     7    10   ar
    32    23    24   ar
    33    25    26   ar
    34    29    31    2
    35    27    28   ar
    36    32    33    1
@<TRIPOS>MOLECULE
MolPort-019-932-358 35425025 CSSS00159291589 MCULE-9394894356 PubChem-45783427 ZINC000035425025
 33 36 0 0 0
SMALL
GASTEIGER

@<TRIPOS>ATOM
      1 C          10.4814   39.5462    6.6817 C.3     1  UNL1        0.1378
      2 C          10.2730   39.8256    5.2137 C.3     1  UNL1        0.0270
      3 C           8.8256   39.4650    4.9906 C.3     1  UNL1        0.0192
      4 C           8.1951   39.3916    6.3763 C.3     1  UNL1        0.0728
      5 N           9.2013   39.7459    7.3726 N.3     1  UNL1       -0.2626
      6 C          13.4622   40.7500    8.1886 C.ar    1  UNL1        0.2078
      7 C          11.6402   40.2919    7.2783 C.ar    1  UNL1        0.2511
      8 O          11.6655   41.5844    7.4900 O.2     1  UNL1       -0.3356
      9 N          12.7874   41.9102    8.0544 N.ar    1  UNL1       -0.0558
     10 N          12.7670   39.6954    7.7089 N.ar    1  UNL1       -0.1895
     11 C          15.8791   41.4735    8.4534 C.ar    1  UNL1        0.2279
     12 C          14.8029   40.6291    8.8017 C.ar    1  UNL1        0.0922
     13 C          15.0174   39.6397    9.7695 C.ar    1  UNL1        0.0094
     14 C          16.2661   39.4945   10.3711 C.ar    1  UNL1        0.0210
     15 C          17.3028   40.3471    9.9972 C.ar    1  UNL1        0.1021
     16 N          17.0901   41.3062    9.0587 N.ar    1  UNL1       -0.2101
     17 O          15.7119   42.4756    7.4936 O.3     1  UNL1       -0.4574
     18 C          16.4633   43.6812    7.5185 C.3     1  UNL1        0.2390
     19 C          16.8766   44.0578    6.1087 C.3     1  UNL1        0.1895
     20 C          15.0522   45.2544    5.7835 C.3     1  UNL1        0.1743
     21 O          16.4426   45.3512    5.8180 O.3     1  UNL1       -0.3471
     22 C           8.9742   41.1574    7.6906 C.3     1  UNL1        0.0995
     23 C           7.8121   41.2981    8.6144 C.ar    1  UNL1       -0.0061
     24 C           6.5120   41.2186    8.1081 C.ar    1  UNL1       -0.0016
     25 C           5.4171   41.3631    8.9655 C.ar    1  UNL1        0.0144
     26 C           5.6141   41.5919   10.3361 C.ar    1  UNL1        0.0503
     27 C           6.9184   41.6750   10.8353 C.ar    1  UNL1        0.0144
     28 C           8.0136   41.5311    9.9794 C.ar    1  UNL1       -0.0016
     29 C           3.2048   42.2307   10.9330 C.2     1  UNL1        0.2266
     30 C           2.1831   42.3085   12.0090 C.3     1  UNL1        0.0949
     31 O           2.9006   42.5909    9.7654 O.2     1  UNL1       -0.2748
     32 N           4.5168   41.7460   11.2462 N.am    1  UNL1       -0.2839
     33 H           4.6816   41.4926   12.1831 H       1  UNL1        0.1549
@<TRIPOS>BOND
     1    20    21    1
     2    19    21    1
     3    19    18    1
     4    18    17    1
     5    11    17    1
     6    11    16   ar
     7    12    13   ar
     8    12     6    1
     9    14    15   ar
    10     6    10   ar
    11     7     8   ar
    12     1     7    1
    13     1     2    1
    14     1     5    1
    15     2     3    1
    16     3     4    1
    17     4     5    1
    18    22     5    1
    19    22    23    1
    20    24    25   ar
    21    26    32    1
    22    26    27   ar
    23    30    29    1
    24    28    23   ar
    25     9     8   ar
    26    32    29   am
    27    11    12   ar
    28    13    14   ar
    29    15    16   ar
    30     6     9   ar
    31     7    10   ar
    32    23    24   ar
    33    25    26   ar
    34    29    31    2
    35    27    28   ar
    36    32    33    1
