@<TRIPOS>MOLECULE
Molport-053-241-663 PubChem-158888792 PubChem-161456835 PubChem-824241
 16 16 0 0 0
SMALL
GASTEIGER

@<TRIPOS>ATOM
      1 C          14.1332   43.0802    6.3189 C.ar    1  UNL1        0.2360
      2 C          13.3007   41.4541    7.3222 C.ar    1  UNL1        0.2411
      3 N          14.3929   42.2407    7.3411 N.ar    1  UNL1       -0.1876
      4 N          12.4285   41.7882    6.3531 N.ar    1  UNL1       -0.1356
      5 N          12.9569   42.8192    5.7174 N.ar    1  UNL1       -0.2517
      6 H          12.5669   43.3021    4.9533 H       1  UNL1        0.1908
      7 C          12.3956   40.4799    9.4843 C.2     1  UNL1        0.2288
      8 C          12.2667   39.2804   10.3517 C.3     1  UNL1        0.0950
      9 O          11.8791   41.5682    9.8515 O.2     1  UNL1       -0.2747
     10 N          13.1051   40.3784    8.2457 N.am    1  UNL1       -0.2527
     11 H          13.4876   39.5022    8.0111 H       1  UNL1        0.1578
     12 C          15.0352   44.1597    5.9087 C.2     1  UNL1        0.3772
     13 O          14.9319   44.6594    4.7553 O.2     1  UNL1       -0.2414
     14 O          16.0020   44.6261    6.8012 O.3     1  UNL1       -0.4433
     15 C          17.7539   43.7853    8.2049 C.3     1  UNL1        0.0513
     16 C          17.3328   44.1313    6.7920 C.3     1  UNL1        0.2090
@<TRIPOS>BOND
     1    15    16    1
     2    16    14    1
     3    12    14    1
     4    12     1    1
     5     2     3   ar
     6     2    10    1
     7     8     7    1
     8     5     4   ar
     9     5     1   ar
    10    10     7   am
    11    12    13    2
    12     1     3   ar
    13     2     4   ar
    14     7     9    2
    15     5     6    1
    16    10    11    1
@<TRIPOS>MOLECULE
Molport-053-241-663 PubChem-158888792 PubChem-161456835 PubChem-824241
 16 16 0 0 0
SMALL
GASTEIGER

@<TRIPOS>ATOM
      1 C          15.4904   43.2550    7.1307 C.ar    1  UNL1        0.2360
      2 C          13.6785   42.9052    6.1618 C.ar    1  UNL1        0.2411
      3 N          14.6158   42.2601    6.8811 N.ar    1  UNL1       -0.1876
      4 N          13.9588   44.2092    5.9817 N.ar    1  UNL1       -0.1356
      5 N          15.1076   44.4303    6.5962 N.ar    1  UNL1       -0.2517
      6 H          15.5895   45.2869    6.6523 H       1  UNL1        0.1908
      7 C          11.3920   41.8384    6.4388 C.2     1  UNL1        0.2288
      8 C          10.2409   41.1711    5.7773 C.3     1  UNL1        0.0950
      9 O          11.3662   42.0282    7.6835 O.2     1  UNL1       -0.2747
     10 N          12.5112   42.2543    5.6500 N.am    1  UNL1       -0.2527
     11 H          12.4755   42.0794    4.6819 H       1  UNL1        0.1578
     12 C          16.7237   43.0744    7.9011 C.2     1  UNL1        0.3772
     13 O          17.3224   44.0799    8.3715 O.2     1  UNL1       -0.2414
     14 O          17.2248   41.7880    8.1077 O.3     1  UNL1       -0.4433
     15 C          15.9744   40.3246    9.5365 C.3     1  UNL1        0.0513
     16 C          17.2176   41.1767    9.3892 C.3     1  UNL1        0.2090
@<TRIPOS>BOND
     1    15    16    1
     2    16    14    1
     3    12    14    1
     4    12     1    1
     5     2     3   ar
     6     2    10    1
     7     8     7    1
     8     5     4   ar
     9     5     1   ar
    10    10     7   am
    11    12    13    2
    12     1     3   ar
    13     2     4   ar
    14     7     9    2
    15     5     6    1
    16    10    11    1
@<TRIPOS>MOLECULE
Molport-053-241-663 PubChem-158888792 PubChem-161456835 PubChem-824241
 16 16 0 0 0
SMALL
GASTEIGER

@<TRIPOS>ATOM
      1 C          14.8033   42.7817    7.1966 C.ar    1  UNL1        0.2360
      2 C          12.9871   42.3571    6.2664 C.ar    1  UNL1        0.2411
      3 N          13.9912   41.7423    6.9190 N.ar    1  UNL1       -0.1876
      4 N          13.1704   43.6855    6.1509 N.ar    1  UNL1       -0.1356
      5 N          14.3220   43.9540    6.7408 N.ar    1  UNL1       -0.2517
      6 H          14.7455   44.8383    6.8297 H       1  UNL1        0.1908
      7 C          10.6025   41.5047    6.4401 C.2     1  UNL1        0.2288
      8 C           9.5009   40.7467    5.7924 C.3     1  UNL1        0.0950
      9 O          10.4226   42.0048    7.5818 O.2     1  UNL1       -0.2747
     10 N          11.8503   41.6537    5.7555 N.am    1  UNL1       -0.2527
     11 H          11.9330   41.2410    4.8655 H       1  UNL1        0.1578
     12 C          16.0722   42.6478    7.9171 C.2     1  UNL1        0.3772
     13 O          16.4214   41.5232    8.3690 O.2     1  UNL1       -0.2414
     14 O          16.8845   43.7690    8.0960 O.3     1  UNL1       -0.4433
     15 C          17.8231   43.8855    5.8933 C.3     1  UNL1        0.0513
     16 C          18.0997   43.9370    7.3814 C.3     1  UNL1        0.2090
@<TRIPOS>BOND
     1    15    16    1
     2    16    14    1
     3    12    14    1
     4    12     1    1
     5     2     3   ar
     6     2    10    1
     7     8     7    1
     8     5     4   ar
     9     5     1   ar
    10    10     7   am
    11    12    13    2
    12     1     3   ar
    13     2     4   ar
    14     7     9    2
    15     5     6    1
    16    10    11    1
@<TRIPOS>MOLECULE
Molport-053-241-663 PubChem-158888792 PubChem-161456835 PubChem-824241
 16 16 0 0 0
SMALL
GASTEIGER

@<TRIPOS>ATOM
      1 C          12.8537   41.2958    7.0120 C.ar    1  UNL1        0.2360
      2 C          14.4099   42.6787    6.9136 C.ar    1  UNL1        0.2411
      3 N          13.9644   41.6657    7.6801 N.ar    1  UNL1       -0.1876
      4 N          13.6251   42.9150    5.8460 N.ar    1  UNL1       -0.1356
      5 N          12.6387   42.0380    5.9090 N.ar    1  UNL1       -0.2517
      6 H          11.8924   41.9452    5.2737 H       1  UNL1        0.1908
      7 C          16.7554   42.8761    7.8638 C.2     1  UNL1        0.2288
      8 C          17.9244   43.7563    8.1216 C.3     1  UNL1        0.0950
      9 O          16.7999   41.6680    8.2164 O.2     1  UNL1       -0.2747
     10 N          15.5977   43.4163    7.2189 N.am    1  UNL1       -0.2527
     11 H          15.6201   44.3675    6.9660 H       1  UNL1        0.1578
     12 C          11.9767   40.2033    7.4415 C.2     1  UNL1        0.3772
     13 O          12.4657   39.2005    8.0297 O.2     1  UNL1       -0.2414
     14 O          10.6049   40.2836    7.1953 O.3     1  UNL1       -0.4433
     15 C           9.1585   38.3724    7.1590 C.3     1  UNL1        0.0513
     16 C           9.9425   39.3706    6.3330 C.3     1  UNL1        0.2090
@<TRIPOS>BOND
     1    15    16    1
     2    16    14    1
     3    12    14    1
     4    12     1    1
     5     2     3   ar
     6     2    10    1
     7     8     7    1
     8     5     4   ar
     9     5     1   ar
    10    10     7   am
    11    12    13    2
    12     1     3   ar
    13     2     4   ar
    14     7     9    2
    15     5     6    1
    16    10    11    1
@<TRIPOS>MOLECULE
Molport-053-241-663 PubChem-158888792 PubChem-161456835 PubChem-824241
 16 16 0 0 0
SMALL
GASTEIGER

@<TRIPOS>ATOM
      1 C          14.7243   41.7370    7.7820 C.ar    1  UNL1        0.2360
      2 C          14.1099   40.1023    8.9195 C.ar    1  UNL1        0.2411
      3 N          13.6183   41.0216    8.0680 N.ar    1  UNL1       -0.1876
      4 N          15.4298   40.2436    9.1417 N.ar    1  UNL1       -0.1356
      5 N          15.8187   41.2802    8.4202 N.ar    1  UNL1       -0.2517
      6 H          16.7304   41.6469    8.3609 H       1  UNL1        0.1908
      7 C          13.3695   37.6915    9.2083 C.2     1  UNL1        0.2288
      8 C          12.4636   36.7422    9.9052 C.3     1  UNL1        0.0950
      9 O          14.1878   37.2548    8.3564 O.2     1  UNL1       -0.2747
     10 N          13.2970   39.0870    9.5168 N.am    1  UNL1       -0.2527
     11 H          12.6379   39.3702   10.1910 H       1  UNL1        0.1578
     12 C          14.7324   42.8871    6.8740 C.2     1  UNL1        0.3772
     13 O          14.0301   42.8644    5.8266 O.2     1  UNL1       -0.2414
     14 O          15.5189   43.9996    7.1783 O.3     1  UNL1       -0.4433
     15 C          17.9071   44.0174    7.3846 C.3     1  UNL1        0.0513
     16 C          16.7221   44.2818    6.4795 C.3     1  UNL1        0.2090
@<TRIPOS>BOND
     1    15    16    1
     2    16    14    1
     3    12    14    1
     4    12     1    1
     5     2     3   ar
     6     2    10    1
     7     8     7    1
     8     5     4   ar
     9     5     1   ar
    10    10     7   am
    11    12    13    2
    12     1     3   ar
    13     2     4   ar
    14     7     9    2
    15     5     6    1
    16    10    11    1
@<TRIPOS>MOLECULE
Molport-053-241-663 PubChem-158888792 PubChem-161456835 PubChem-824241
 16 16 0 0 0
SMALL
GASTEIGER

@<TRIPOS>ATOM
      1 C          12.5554   41.9871    6.9940 C.ar    1  UNL1        0.2360
      2 C          14.5420   42.6125    6.9132 C.ar    1  UNL1        0.2411
      3 N          13.6906   41.9519    7.7200 N.ar    1  UNL1       -0.1876
      4 N          13.9679   43.0257    5.7681 N.ar    1  UNL1       -0.1356
      5 N          12.7085   42.6289    5.8200 N.ar    1  UNL1       -0.2517
      6 H          12.0171   42.7741    5.1343 H       1  UNL1        0.1908
      7 C          16.6715   43.9933    6.8735 C.2     1  UNL1        0.2288
      8 C          18.0911   44.1051    7.2977 C.3     1  UNL1        0.0950
      9 O          16.1567   44.9130    6.1843 O.2     1  UNL1       -0.2747
     10 N          15.9126   42.8417    7.2552 N.am    1  UNL1       -0.2527
     11 H          16.3680   42.1549    7.7940 H       1  UNL1        0.1578
     12 C          11.2925   41.3902    7.4367 C.2     1  UNL1        0.3772
     13 O          10.5608   40.7834    6.6077 O.2     1  UNL1       -0.2414
     14 O          10.9109   41.4989    8.7751 O.3     1  UNL1       -0.4433
     15 C           9.6678   43.2015    9.9162 C.3     1  UNL1        0.0513
     16 C          11.0391   42.7156    9.4956 C.3     1  UNL1        0.2090
@<TRIPOS>BOND
     1    15    16    1
     2    16    14    1
     3    12    14    1
     4    12     1    1
     5     2     3   ar
     6     2    10    1
     7     8     7    1
     8     5     4   ar
     9     5     1   ar
    10    10     7   am
    11    12    13    2
    12     1     3   ar
    13     2     4   ar
    14     7     9    2
    15     5     6    1
    16    10    11    1
@<TRIPOS>MOLECULE
Molport-053-241-663 PubChem-158888792 PubChem-161456835 PubChem-824241
 16 16 0 0 0
SMALL
GASTEIGER

@<TRIPOS>ATOM
      1 C           9.0714   42.1900   10.9544 C.ar    1  UNL1        0.2360
      2 C           7.1325   41.6031   11.4444 C.ar    1  UNL1        0.2411
      3 N           7.8565   42.0298   10.3929 N.ar    1  UNL1       -0.1876
      4 N           7.8546   41.5075   12.5762 N.ar    1  UNL1       -0.1356
      5 N           9.0838   41.8798   12.2648 N.ar    1  UNL1       -0.2517
      6 H           9.8574   41.9221   12.8722 H       1  UNL1        0.1908
      7 C           5.0391   41.0303   10.1282 C.2     1  UNL1        0.2288
      8 C           3.5879   40.7146   10.1725 C.3     1  UNL1        0.0950
      9 O           5.6315   41.0664    9.0175 O.2     1  UNL1       -0.2747
     10 N           5.7397   41.2884   11.3490 N.am    1  UNL1       -0.2527
     11 H           5.2244   41.2462   12.1868 H       1  UNL1        0.1578
     12 C          10.2500   42.6516   10.2162 C.2     1  UNL1        0.3772
     13 O          10.6732   43.8281   10.3823 O.2     1  UNL1       -0.2414
     14 O          10.8949   41.7823    9.3345 O.3     1  UNL1       -0.4433
     15 C          13.1744   41.2617    8.8062 C.3     1  UNL1        0.0513
     16 C          12.0078   40.9968    9.7348 C.3     1  UNL1        0.2090
@<TRIPOS>BOND
     1    15    16    1
     2    16    14    1
     3    12    14    1
     4    12     1    1
     5     2     3   ar
     6     2    10    1
     7     8     7    1
     8     5     4   ar
     9     5     1   ar
    10    10     7   am
    11    12    13    2
    12     1     3   ar
    13     2     4   ar
    14     7     9    2
    15     5     6    1
    16    10    11    1
@<TRIPOS>MOLECULE
Molport-053-241-663 PubChem-158888792 PubChem-161456835 PubChem-824241
 16 16 0 0 0
SMALL
GASTEIGER

@<TRIPOS>ATOM
      1 C          16.2735   40.3166    9.6442 C.ar    1  UNL1        0.2360
      2 C          16.2991   41.9078    8.2984 C.ar    1  UNL1        0.2411
      3 N          15.4364   41.0712    8.9047 N.ar    1  UNL1       -0.1876
      4 N          17.5806   41.6821    8.6425 N.ar    1  UNL1       -0.1356
      5 N          17.5636   40.6731    9.4957 N.ar    1  UNL1       -0.2517
      6 H          18.3421   40.2622    9.9366 H       1  UNL1        0.1908
      7 C          14.6653   42.8963    6.6261 C.2     1  UNL1        0.2288
      8 C          14.3492   44.0237    5.7113 C.3     1  UNL1        0.0950
      9 O          13.8619   41.9310    6.7202 O.2     1  UNL1       -0.2747
     10 N          15.8780   42.9261    7.3851 N.am    1  UNL1       -0.2527
     11 H          16.4674   43.7063    7.2704 H       1  UNL1        0.1578
     12 C          15.8253   39.2266   10.5151 C.2     1  UNL1        0.3772
     13 O          16.4327   38.1214   10.4999 O.2     1  UNL1       -0.2414
     14 O          14.7282   39.4231   11.3556 O.3     1  UNL1       -0.4433
     15 C          12.4569   39.9987   10.8490 C.3     1  UNL1        0.0513
     16 C          13.4510   38.8764   11.0626 C.3     1  UNL1        0.2090
@<TRIPOS>BOND
     1    15    16    1
     2    16    14    1
     3    12    14    1
     4    12     1    1
     5     2     3   ar
     6     2    10    1
     7     8     7    1
     8     5     4   ar
     9     5     1   ar
    10    10     7   am
    11    12    13    2
    12     1     3   ar
    13     2     4   ar
    14     7     9    2
    15     5     6    1
    16    10    11    1
@<TRIPOS>MOLECULE
Molport-053-241-663 PubChem-158888792 PubChem-161456835 PubChem-824241
 16 16 0 0 0
SMALL
GASTEIGER

@<TRIPOS>ATOM
      1 C          16.7783   42.4095    7.9328 C.ar    1  UNL1        0.2360
      2 C          17.2365   40.8370    9.2218 C.ar    1  UNL1        0.2411
      3 N          17.8387   41.8005    8.5000 N.ar    1  UNL1       -0.1876
      4 N          15.8957   40.8532    9.1056 N.ar    1  UNL1       -0.1356
      5 N          15.6059   41.8504    8.2883 N.ar    1  UNL1       -0.2517
      6 H          14.7082   42.1299    7.9963 H       1  UNL1        0.1908
      7 C          17.7625   38.4845   10.0169 C.2     1  UNL1        0.2288
      8 C          18.5901   37.6256   10.9029 C.3     1  UNL1        0.0950
      9 O          16.8960   37.9538    9.2730 O.2     1  UNL1       -0.2747
     10 N          17.9640   39.9013   10.0239 N.am    1  UNL1       -0.2527
     11 H          18.6555   40.2595   10.6261 H       1  UNL1        0.1578
     12 C          16.8918   43.5563    7.0277 C.2     1  UNL1        0.3772
     13 O          17.9399   43.7147    6.3442 O.2     1  UNL1       -0.2414
     14 O          15.8358   44.4641    6.9302 O.3     1  UNL1       -0.4433
     15 C          13.8317   43.8022    5.7937 C.3     1  UNL1        0.0513
     16 C          15.0978   44.6306    5.7288 C.3     1  UNL1        0.2090
@<TRIPOS>BOND
     1    15    16    1
     2    16    14    1
     3    12    14    1
     4    12     1    1
     5     2     3   ar
     6     2    10    1
     7     8     7    1
     8     5     4   ar
     9     5     1   ar
    10    10     7   am
    11    12    13    2
    12     1     3   ar
    13     2     4   ar
    14     7     9    2
    15     5     6    1
    16    10    11    1
@<TRIPOS>MOLECULE
Molport-053-241-663 PubChem-158888792 PubChem-161456835 PubChem-824241
 16 16 0 0 0
SMALL
GASTEIGER

@<TRIPOS>ATOM
      1 C          11.0019   41.4476    6.4967 C.ar    1  UNL1        0.2360
      2 C          12.9288   42.1687    6.8298 C.ar    1  UNL1        0.2411
      3 N          12.1737   41.6281    5.8554 N.ar    1  UNL1       -0.1876
      4 N          12.2651   42.3106    7.9921 N.ar    1  UNL1       -0.1356
      5 N          11.0435   41.8532    7.7802 N.ar    1  UNL1       -0.2517
      6 H          10.3076   41.8162    8.4332 H       1  UNL1        0.1908
      7 C          14.7271   43.7458    5.9802 C.2     1  UNL1        0.2288
      8 C          16.1814   44.0164    5.8407 C.3     1  UNL1        0.0950
      9 O          13.8962   44.5747    5.5236 O.2     1  UNL1       -0.2747
     10 N          14.2947   42.5471    6.6312 N.am    1  UNL1       -0.2527
     11 H          14.9895   41.9363    6.9679 H       1  UNL1        0.1578
     12 C           9.8125   40.8720    5.8633 C.2     1  UNL1        0.3772
     13 O           9.8016   40.6669    4.6189 O.2     1  UNL1       -0.2414
     14 O           8.7005   40.5550    6.6455 O.3     1  UNL1       -0.4433
     15 C           9.0491   38.2469    7.1908 C.3     1  UNL1        0.0513
     16 C           8.0976   39.2702    6.6070 C.3     1  UNL1        0.2090
@<TRIPOS>BOND
     1    15    16    1
     2    16    14    1
     3    12    14    1
     4    12     1    1
     5     2     3   ar
     6     2    10    1
     7     8     7    1
     8     5     4   ar
     9     5     1   ar
    10    10     7   am
    11    12    13    2
    12     1     3   ar
    13     2     4   ar
    14     7     9    2
    15     5     6    1
    16    10    11    1
