@<TRIPOS>MOLECULE
MolPort-002-849-478 8715568 LN01251847 MCULE-7792707188 PubChem-11842435 ZINC000008715568 ZINC08715568
 29 32 0 0 0
SMALL
GASTEIGER

@<TRIPOS>ATOM
      1 C          10.0070   41.3911    8.5321 C.ar    1  UNL1        0.1658
      2 C          11.8853   40.3348    9.1858 C.ar    1  UNL1        0.0923
      3 C          12.4215   41.1642    8.1829 C.ar    1  UNL1        0.0886
      4 N          10.5417   40.4750    9.3666 N.ar    1  UNL1       -0.2238
      5 S          11.1619   42.0808    7.5349 S.2     1  UNL1       -0.0481
      6 C          12.6436   39.3373    9.9728 C.ar    1  UNL1        0.0183
      7 C          12.6148   37.9727    9.6460 C.ar    1  UNL1        0.0015
      8 C          13.3065   37.0412   10.4252 C.ar    1  UNL1        0.0000
      9 C          14.0245   37.4645   11.5462 C.ar    1  UNL1        0.0000
     10 C          14.0467   38.8184   11.8903 C.ar    1  UNL1        0.0000
     11 C          13.3547   39.7491   11.1098 C.ar    1  UNL1        0.0015
     12 O           8.8243   43.8447    9.5110 O.2     1  UNL1       -0.2698
     13 C           8.0719   42.9703    9.0003 C.2     1  UNL1        0.2509
     14 N           8.6204   41.7419    8.5045 N.am    1  UNL1       -0.2606
     15 H           7.9945   41.0895    8.1149 H       1  UNL1        0.1571
     16 C           6.6210   43.2128    8.9131 C.ar    1  UNL1        0.0537
     17 C           5.7218   42.4065    9.6273 C.ar    1  UNL1        0.0045
     18 C           4.3454   42.6374    9.5439 C.ar    1  UNL1        0.0001
     19 C           3.8581   43.6760    8.7460 C.ar    1  UNL1        0.0000
     20 C           4.7467   44.4837    8.0313 C.ar    1  UNL1        0.0001
     21 C           6.1230   44.2530    8.1147 C.ar    1  UNL1        0.0045
     22 O          14.6882   40.5044    8.2124 O.2     1  UNL1       -0.2859
     23 C          13.8469   41.3717    7.8512 C.2     1  UNL1        0.2045
     24 C          14.3168   42.5807    7.1394 C.ar    1  UNL1        0.0587
     25 C          13.4908   43.2653    6.2367 C.ar    1  UNL1        0.1020
     26 C          15.2124   44.8304    5.7666 C.ar    1  UNL1        0.0989
     27 C          16.0749   44.1787    6.6490 C.ar    1  UNL1        0.0208
     28 C          15.6227   43.0496    7.3331 C.ar    1  UNL1        0.0064
     29 N          13.9492   44.3639    5.5792 N.ar    1  UNL1       -0.2422
@<TRIPOS>BOND
     1    13    14   am
     2    13    16    1
     3     1     5   ar
     4     2     4   ar
     5     2     6    1
     6     3     5   ar
     7     3    23    1
     8    23    24    1
     9    25    29   ar
    10    26    27   ar
    11    28    24   ar
    12     7     8   ar
    13     9    10   ar
    14    11     6   ar
    15    17    18   ar
    16    19    20   ar
    17    21    16   ar
    18    14     1    1
    19    13    12    2
    20     1     4   ar
    21     2     3   ar
    22    23    22    2
    23    24    25   ar
    24    26    29   ar
    25    27    28   ar
    26     6     7   ar
    27     8     9   ar
    28    10    11   ar
    29    16    17   ar
    30    18    19   ar
    31    20    21   ar
    32    14    15    1
@<TRIPOS>MOLECULE
MolPort-002-849-478 8715568 LN01251847 MCULE-7792707188 PubChem-11842435 ZINC000008715568 ZINC08715568
 29 32 0 0 0
SMALL
GASTEIGER

@<TRIPOS>ATOM
      1 C           3.0836   42.2155   11.6096 C.ar    1  UNL1        0.1658
      2 C           1.2664   41.8894   12.8990 C.ar    1  UNL1        0.0923
      3 C           1.8349   42.9878   13.5712 C.ar    1  UNL1        0.0886
      4 N           1.9737   41.4742   11.8105 N.ar    1  UNL1       -0.2238
      5 S           3.2464   43.4245   12.7566 S.2     1  UNL1       -0.0481
      6 C           0.0438   41.1666   13.3141 C.ar    1  UNL1        0.0183
      7 C           0.1036   39.8591   13.8205 C.ar    1  UNL1        0.0015
      8 C          -1.0661   39.1789   14.1704 C.ar    1  UNL1        0.0000
      9 C          -2.3084   39.7962   14.0060 C.ar    1  UNL1        0.0000
     10 C          -2.3809   41.0914   13.4873 C.ar    1  UNL1        0.0000
     11 C          -1.2101   41.7707   13.1381 C.ar    1  UNL1        0.0015
     12 O           5.8940   41.5705   11.8584 O.2     1  UNL1       -0.2698
     13 C           5.3980   41.6848   10.7042 C.2     1  UNL1        0.2509
     14 N           4.0098   42.0037   10.5401 N.am    1  UNL1       -0.2606
     15 H           3.6676   42.0831    9.6204 H       1  UNL1        0.1571
     16 C           6.2501   41.4899    9.5179 C.ar    1  UNL1        0.0537
     17 C           5.7357   41.7055    8.2305 C.ar    1  UNL1        0.0045
     18 C           6.5450   41.5204    7.1056 C.ar    1  UNL1        0.0001
     19 C           7.8744   41.1183    7.2597 C.ar    1  UNL1        0.0000
     20 C           8.3948   40.9013    8.5383 C.ar    1  UNL1        0.0001
     21 C           7.5856   41.0865    9.6632 C.ar    1  UNL1        0.0045
     22 O           1.5524   43.4771   15.8635 O.2     1  UNL1       -0.2859
     23 C           1.2451   43.7721   14.6765 C.2     1  UNL1        0.2045
     24 C           0.2816   44.8679   14.4314 C.ar    1  UNL1        0.0587
     25 C          -1.0433   44.6060   14.0549 C.ar    1  UNL1        0.1020
     26 C          -1.5217   46.9277   13.9279 C.ar    1  UNL1        0.0989
     27 C          -0.2111   47.2391   14.2924 C.ar    1  UNL1        0.0208
     28 C           0.6904   46.2033   14.5412 C.ar    1  UNL1        0.0064
     29 N          -1.9075   45.6288   13.8165 N.ar    1  UNL1       -0.2422
@<TRIPOS>BOND
     1    13    14   am
     2    13    16    1
     3     1     5   ar
     4     2     4   ar
     5     2     6    1
     6     3     5   ar
     7     3    23    1
     8    23    24    1
     9    25    29   ar
    10    26    27   ar
    11    28    24   ar
    12     7     8   ar
    13     9    10   ar
    14    11     6   ar
    15    17    18   ar
    16    19    20   ar
    17    21    16   ar
    18    14     1    1
    19    13    12    2
    20     1     4   ar
    21     2     3   ar
    22    23    22    2
    23    24    25   ar
    24    26    29   ar
    25    27    28   ar
    26     6     7   ar
    27     8     9   ar
    28    10    11   ar
    29    16    17   ar
    30    18    19   ar
    31    20    21   ar
    32    14    15    1
@<TRIPOS>MOLECULE
MolPort-002-849-478 8715568 LN01251847 MCULE-7792707188 PubChem-11842435 ZINC000008715568 ZINC08715568
 29 32 0 0 0
SMALL
GASTEIGER

@<TRIPOS>ATOM
      1 C           4.4594   38.0212    3.6513 C.ar    1  UNL1        0.1658
      2 C           3.7779   36.0911    2.7127 C.ar    1  UNL1        0.0923
      3 C           3.8003   36.9111    1.5688 C.ar    1  UNL1        0.0886
      4 N           4.1479   36.7248    3.8611 N.ar    1  UNL1       -0.2238
      5 S           4.3029   38.4511    2.0405 S.2     1  UNL1       -0.0481
      6 C           3.3479   34.6757    2.7472 C.ar    1  UNL1        0.0183
      7 C           2.5785   34.1196    1.7136 C.ar    1  UNL1        0.0015
      8 C           2.1492   32.7914    1.7835 C.ar    1  UNL1        0.0000
      9 C           2.4758   32.0097    2.8943 C.ar    1  UNL1        0.0000
     10 C           3.2273   32.5578    3.9366 C.ar    1  UNL1        0.0000
     11 C           3.6564   33.8863    3.8652 C.ar    1  UNL1        0.0015
     12 O           7.1526   38.9754    4.1128 O.2     1  UNL1       -0.2698
     13 C           6.2292   39.3738    4.8744 C.2     1  UNL1        0.2509
     14 N           4.8823   38.9233    4.6779 N.am    1  UNL1       -0.2606
     15 H           4.1955   39.2609    5.2972 H       1  UNL1        0.1571
     16 C           6.5367   40.3073    5.9724 C.ar    1  UNL1        0.0537
     17 C           6.2390   41.6728    5.8483 C.ar    1  UNL1        0.0045
     18 C           6.5310   42.5576    6.8907 C.ar    1  UNL1        0.0001
     19 C           7.1227   42.0836    8.0646 C.ar    1  UNL1        0.0000
     20 C           7.4226   40.7251    8.1964 C.ar    1  UNL1        0.0001
     21 C           7.1306   39.8403    7.1542 C.ar    1  UNL1        0.0045
     22 O           2.4653   36.5962   -0.3528 O.2     1  UNL1       -0.2859
     23 C           3.6130   36.5007    0.1613 C.2     1  UNL1        0.2045
     24 C           4.7230   35.9512   -0.6481 C.ar    1  UNL1        0.0587
     25 C           5.2993   36.6865   -1.6936 C.ar    1  UNL1        0.1020
     26 C           6.7824   34.9037   -2.2003 C.ar    1  UNL1        0.0989
     27 C           6.2359   34.1299   -1.1757 C.ar    1  UNL1        0.0208
     28 C           5.2017   34.6579   -0.4017 C.ar    1  UNL1        0.0064
     29 N           6.3065   36.1550   -2.4371 N.ar    1  UNL1       -0.2422
@<TRIPOS>BOND
     1    13    14   am
     2    13    16    1
     3     1     5   ar
     4     2     4   ar
     5     2     6    1
     6     3     5   ar
     7     3    23    1
     8    23    24    1
     9    25    29   ar
    10    26    27   ar
    11    28    24   ar
    12     7     8   ar
    13     9    10   ar
    14    11     6   ar
    15    17    18   ar
    16    19    20   ar
    17    21    16   ar
    18    14     1    1
    19    13    12    2
    20     1     4   ar
    21     2     3   ar
    22    23    22    2
    23    24    25   ar
    24    26    29   ar
    25    27    28   ar
    26     6     7   ar
    27     8     9   ar
    28    10    11   ar
    29    16    17   ar
    30    18    19   ar
    31    20    21   ar
    32    14    15    1
@<TRIPOS>MOLECULE
MolPort-002-849-478 8715568 LN01251847 MCULE-7792707188 PubChem-11842435 ZINC000008715568 ZINC08715568
 29 32 0 0 0
SMALL
GASTEIGER

@<TRIPOS>ATOM
      1 C          11.7292   42.5164    8.4339 C.ar    1  UNL1        0.1658
      2 C           9.6203   41.8941    7.9478 C.ar    1  UNL1        0.0923
      3 C           9.3539   42.8963    8.8996 C.ar    1  UNL1        0.0886
      4 N          10.9461   41.6971    7.7009 N.ar    1  UNL1       -0.2238
      5 S          10.8294   43.5302    9.4170 S.2     1  UNL1       -0.0481
      6 C           8.6040   41.0527    7.2781 C.ar    1  UNL1        0.0183
      7 C           7.5029   41.6211    6.6190 C.ar    1  UNL1        0.0015
      8 C           6.5329   40.8080    6.0261 C.ar    1  UNL1        0.0000
      9 C           6.6491   39.4177    6.0970 C.ar    1  UNL1        0.0000
     10 C           7.7323   38.8411    6.7647 C.ar    1  UNL1        0.0000
     11 C           8.7020   39.6555    7.3569 C.ar    1  UNL1        0.0015
     12 O          13.3638   43.5886    6.2996 O.2     1  UNL1       -0.2698
     13 C          13.9341   43.0700    7.2982 C.2     1  UNL1        0.2509
     14 N          13.1585   42.5279    8.3754 N.am    1  UNL1       -0.2606
     15 H          13.6474   42.1331    9.1333 H       1  UNL1        0.1571
     16 C          15.4056   43.0208    7.3578 C.ar    1  UNL1        0.0537
     17 C          16.0522   42.1104    8.2074 C.ar    1  UNL1        0.0045
     18 C          17.4484   42.0644    8.2632 C.ar    1  UNL1        0.0001
     19 C          18.2083   42.9282    7.4699 C.ar    1  UNL1        0.0000
     20 C          17.5724   43.8380    6.6209 C.ar    1  UNL1        0.0001
     21 C          16.1763   43.8840    6.5651 C.ar    1  UNL1        0.0045
     22 O           7.8172   44.6823    9.0518 O.2     1  UNL1       -0.2859
     23 C           8.0391   43.4603    9.2712 C.2     1  UNL1        0.2045
     24 C           6.9921   42.6420    9.9217 C.ar    1  UNL1        0.0587
     25 C           5.6442   42.7499    9.5511 C.ar    1  UNL1        0.1020
     26 C           5.0144   41.1352   11.1731 C.ar    1  UNL1        0.0989
     27 C           6.3413   40.9982   11.5827 C.ar    1  UNL1        0.0208
     28 C           7.3293   41.7576   10.9545 C.ar    1  UNL1        0.0064
     29 N           4.6954   42.0014   10.1750 N.ar    1  UNL1       -0.2422
@<TRIPOS>BOND
     1    13    14   am
     2    13    16    1
     3     1     5   ar
     4     2     4   ar
     5     2     6    1
     6     3     5   ar
     7     3    23    1
     8    23    24    1
     9    25    29   ar
    10    26    27   ar
    11    28    24   ar
    12     7     8   ar
    13     9    10   ar
    14    11     6   ar
    15    17    18   ar
    16    19    20   ar
    17    21    16   ar
    18    14     1    1
    19    13    12    2
    20     1     4   ar
    21     2     3   ar
    22    23    22    2
    23    24    25   ar
    24    26    29   ar
    25    27    28   ar
    26     6     7   ar
    27     8     9   ar
    28    10    11   ar
    29    16    17   ar
    30    18    19   ar
    31    20    21   ar
    32    14    15    1
@<TRIPOS>MOLECULE
MolPort-002-849-478 8715568 LN01251847 MCULE-7792707188 PubChem-11842435 ZINC000008715568 ZINC08715568
 29 32 0 0 0
SMALL
GASTEIGER

@<TRIPOS>ATOM
      1 C          10.1636   41.7525    9.0433 C.ar    1  UNL1        0.1658
      2 C          11.9351   40.4534    9.5385 C.ar    1  UNL1        0.0923
      3 C          12.4959   41.2281    8.5057 C.ar    1  UNL1        0.0886
      4 N          10.6381   40.7592    9.8243 N.ar    1  UNL1       -0.2238
      5 S          11.3188   42.3101    7.9669 S.2     1  UNL1       -0.0481
      6 C          12.6167   39.3520   10.2539 C.ar    1  UNL1        0.0183
      7 C          13.5469   39.6073   11.2734 C.ar    1  UNL1        0.0015
      8 C          14.2092   38.5542   11.9104 C.ar    1  UNL1        0.0000
      9 C          13.9558   37.2355   11.5255 C.ar    1  UNL1        0.0000
     10 C          13.0440   36.9706   10.5007 C.ar    1  UNL1        0.0000
     11 C          12.3820   38.0248    9.8647 C.ar    1  UNL1        0.0015
     12 O           8.2894   42.0692    6.8607 O.2     1  UNL1       -0.2698
     13 C           7.9348   42.4180    8.0201 C.2     1  UNL1        0.2509
     14 N           8.8352   42.2769    9.1268 N.am    1  UNL1       -0.2606
     15 H           8.5146   42.5629   10.0126 H       1  UNL1        0.1571
     16 C           6.5877   42.9740    8.2379 C.ar    1  UNL1        0.0537
     17 C           5.7510   42.4411    9.2302 C.ar    1  UNL1        0.0045
     18 C           4.4731   42.9694    9.4362 C.ar    1  UNL1        0.0001
     19 C           4.0224   44.0343    8.6517 C.ar    1  UNL1        0.0000
     20 C           4.8491   44.5711    7.6611 C.ar    1  UNL1        0.0001
     21 C           6.1270   44.0429    7.4551 C.ar    1  UNL1        0.0045
     22 O          14.6882   40.3527    8.4637 O.2     1  UNL1       -0.2859
     23 C          13.9069   41.2598    8.0668 C.2     1  UNL1        0.2045
     24 C          14.4345   42.3407    7.2052 C.ar    1  UNL1        0.0587
     25 C          13.7196   42.8023    6.0909 C.ar    1  UNL1        0.1020
     26 C          15.4437   44.3444    5.5575 C.ar    1  UNL1        0.0989
     27 C          16.1964   43.9132    6.6506 C.ar    1  UNL1        0.0208
     28 C          15.6879   42.9065    7.4724 C.ar    1  UNL1        0.0064
     29 N          14.2316   43.7843    5.3015 N.ar    1  UNL1       -0.2422
@<TRIPOS>BOND
     1    13    14   am
     2    13    16    1
     3     1     5   ar
     4     2     4   ar
     5     2     6    1
     6     3     5   ar
     7     3    23    1
     8    23    24    1
     9    25    29   ar
    10    26    27   ar
    11    28    24   ar
    12     7     8   ar
    13     9    10   ar
    14    11     6   ar
    15    17    18   ar
    16    19    20   ar
    17    21    16   ar
    18    14     1    1
    19    13    12    2
    20     1     4   ar
    21     2     3   ar
    22    23    22    2
    23    24    25   ar
    24    26    29   ar
    25    27    28   ar
    26     6     7   ar
    27     8     9   ar
    28    10    11   ar
    29    16    17   ar
    30    18    19   ar
    31    20    21   ar
    32    14    15    1
@<TRIPOS>MOLECULE
MolPort-002-849-478 8715568 LN01251847 MCULE-7792707188 PubChem-11842435 ZINC000008715568 ZINC08715568
 29 32 0 0 0
SMALL
GASTEIGER

@<TRIPOS>ATOM
      1 C           9.0635   41.2529    8.9231 C.ar    1  UNL1        0.1658
      2 C          11.1775   40.5104    8.6972 C.ar    1  UNL1        0.0923
      3 C          10.9958   41.0862    7.4257 C.ar    1  UNL1        0.0886
      4 N          10.0932   40.6131    9.5165 N.ar    1  UNL1       -0.2238
      5 S           9.4382   41.7316    7.3628 S.2     1  UNL1       -0.0481
      6 C          12.3896   39.7930    9.1507 C.ar    1  UNL1        0.0183
      7 C          12.8384   38.6325    8.5015 C.ar    1  UNL1        0.0015
      8 C          13.9632   37.9472    8.9691 C.ar    1  UNL1        0.0000
      9 C          14.6432   38.4099   10.0982 C.ar    1  UNL1        0.0000
     10 C          14.1956   39.5548   10.7620 C.ar    1  UNL1        0.0000
     11 C          13.0707   40.2395   10.2930 C.ar    1  UNL1        0.0015
     12 O           6.4468   40.6269    7.8567 O.2     1  UNL1       -0.2698
     13 C           6.5243   41.1773    8.9891 C.2     1  UNL1        0.2509
     14 N           7.8026   41.5031    9.5508 N.am    1  UNL1       -0.2606
     15 H           7.8135   41.9322   10.4368 H       1  UNL1        0.1571
     16 C           5.2942   41.4875    9.7388 C.ar    1  UNL1        0.0537
     17 C           4.3198   42.3326    9.1866 C.ar    1  UNL1        0.0045
     18 C           3.1529   42.6262    9.8986 C.ar    1  UNL1        0.0001
     19 C           2.9519   42.0771   11.1678 C.ar    1  UNL1        0.0000
     20 C           3.9173   41.2344   11.7252 C.ar    1  UNL1        0.0001
     21 C           5.0840   40.9407   11.0133 C.ar    1  UNL1        0.0045
     22 O          11.9097   40.6365    5.2958 O.2     1  UNL1       -0.2859
     23 C          12.0133   41.2853    6.3723 C.2     1  UNL1        0.2045
     24 C          13.1645   42.1960    6.5583 C.ar    1  UNL1        0.0587
     25 C          13.1764   43.4827    6.0014 C.ar    1  UNL1        0.1020
     26 C          15.3465   43.8958    6.8702 C.ar    1  UNL1        0.0989
     27 C          15.3852   42.6212    7.4370 C.ar    1  UNL1        0.0208
     28 C          14.2903   41.7713    7.2758 C.ar    1  UNL1        0.0064
     29 N          14.2528   44.2968    6.1692 N.ar    1  UNL1       -0.2422
@<TRIPOS>BOND
     1    13    14   am
     2    13    16    1
     3     1     5   ar
     4     2     4   ar
     5     2     6    1
     6     3     5   ar
     7     3    23    1
     8    23    24    1
     9    25    29   ar
    10    26    27   ar
    11    28    24   ar
    12     7     8   ar
    13     9    10   ar
    14    11     6   ar
    15    17    18   ar
    16    19    20   ar
    17    21    16   ar
    18    14     1    1
    19    13    12    2
    20     1     4   ar
    21     2     3   ar
    22    23    22    2
    23    24    25   ar
    24    26    29   ar
    25    27    28   ar
    26     6     7   ar
    27     8     9   ar
    28    10    11   ar
    29    16    17   ar
    30    18    19   ar
    31    20    21   ar
    32    14    15    1
@<TRIPOS>MOLECULE
MolPort-002-849-478 8715568 LN01251847 MCULE-7792707188 PubChem-11842435 ZINC000008715568 ZINC08715568
 29 32 0 0 0
SMALL
GASTEIGER

@<TRIPOS>ATOM
      1 C           8.7628   42.3472    9.6499 C.ar    1  UNL1        0.1658
      2 C          10.9105   41.9092    9.1333 C.ar    1  UNL1        0.0923
      3 C          10.8370   41.2698   10.3852 C.ar    1  UNL1        0.0886
      4 N           9.7479   42.5020    8.7403 N.ar    1  UNL1       -0.2238
      5 S           9.2704   41.4660   10.9802 S.2     1  UNL1       -0.0481
      6 C          12.1232   42.0153    8.2922 C.ar    1  UNL1        0.0183
      7 C          12.3327   41.1596    7.1997 C.ar    1  UNL1        0.0015
      8 C          13.5031   41.2500    6.4412 C.ar    1  UNL1        0.0000
      9 C          14.4809   42.1899    6.7755 C.ar    1  UNL1        0.0000
     10 C          14.2902   43.0358    7.8709 C.ar    1  UNL1        0.0000
     11 C          13.1189   42.9446    8.6286 C.ar    1  UNL1        0.0015
     12 O           7.4834   43.1185    7.1710 O.2     1  UNL1       -0.2698
     13 C           6.8381   43.2359    8.2487 C.2     1  UNL1        0.2509
     14 N           7.4379   42.8645    9.4969 N.am    1  UNL1       -0.2606
     15 H           6.8961   42.9740   10.3116 H       1  UNL1        0.1571
     16 C           5.4603   43.7579    8.2245 C.ar    1  UNL1        0.0537
     17 C           4.4553   43.1460    8.9888 C.ar    1  UNL1        0.0045
     18 C           3.1483   43.6421    8.9653 C.ar    1  UNL1        0.0001
     19 C           2.8368   44.7535    8.1775 C.ar    1  UNL1        0.0000
     20 C           3.8318   45.3689    7.4132 C.ar    1  UNL1        0.0001
     21 C           5.1386   44.8730    7.4367 C.ar    1  UNL1        0.0045
     22 O          11.9584   40.4089   12.2760 O.2     1  UNL1       -0.2859
     23 C          11.8573   40.4084   11.0189 C.2     1  UNL1        0.2045
     24 C          12.7824   39.5740   10.2207 C.ar    1  UNL1        0.0587
     25 C          14.1500   39.8720   10.1390 C.ar    1  UNL1        0.1020
     26 C          14.5180   38.0316    8.6856 C.ar    1  UNL1        0.0989
     27 C          13.1633   37.6994    8.7290 C.ar    1  UNL1        0.0208
     28 C          12.2963   38.4770    9.4977 C.ar    1  UNL1        0.0064
     29 N          14.9796   39.1024    9.3846 N.ar    1  UNL1       -0.2422
@<TRIPOS>BOND
     1    13    14   am
     2    13    16    1
     3     1     5   ar
     4     2     4   ar
     5     2     6    1
     6     3     5   ar
     7     3    23    1
     8    23    24    1
     9    25    29   ar
    10    26    27   ar
    11    28    24   ar
    12     7     8   ar
    13     9    10   ar
    14    11     6   ar
    15    17    18   ar
    16    19    20   ar
    17    21    16   ar
    18    14     1    1
    19    13    12    2
    20     1     4   ar
    21     2     3   ar
    22    23    22    2
    23    24    25   ar
    24    26    29   ar
    25    27    28   ar
    26     6     7   ar
    27     8     9   ar
    28    10    11   ar
    29    16    17   ar
    30    18    19   ar
    31    20    21   ar
    32    14    15    1
@<TRIPOS>MOLECULE
MolPort-002-849-478 8715568 LN01251847 MCULE-7792707188 PubChem-11842435 ZINC000008715568 ZINC08715568
 29 32 0 0 0
SMALL
GASTEIGER

@<TRIPOS>ATOM
      1 C          14.8508   36.0909    7.1894 C.ar    1  UNL1        0.1658
      2 C          13.9857   37.7022    8.5032 C.ar    1  UNL1        0.0923
      3 C          14.9619   37.1881    9.3773 C.ar    1  UNL1        0.0886
      4 N          13.9389   37.0806    7.2912 N.ar    1  UNL1       -0.2238
      5 S          15.7664   35.9359    8.5828 S.2     1  UNL1       -0.0481
      6 C          13.0258   38.7811    8.8256 C.ar    1  UNL1        0.0183
      7 C          13.3827   40.1341    8.7172 C.ar    1  UNL1        0.0015
      8 C          12.4743   41.1381    9.0639 C.ar    1  UNL1        0.0000
      9 C          11.2034   40.7979    9.5337 C.ar    1  UNL1        0.0000
     10 C          10.8432   39.4541    9.6611 C.ar    1  UNL1        0.0000
     11 C          11.7527   38.4509    9.3137 C.ar    1  UNL1        0.0015
     12 O          16.0480   33.4576    7.0917 O.2     1  UNL1       -0.2698
     13 C          15.6241   33.9712    6.0203 C.2     1  UNL1        0.2509
     14 N          15.0251   35.2738    6.0281 N.am    1  UNL1       -0.2606
     15 H          14.7094   35.6338    5.1679 H       1  UNL1        0.1571
     16 C          15.7455   33.2282    4.7535 C.ar    1  UNL1        0.0537
     17 C          15.0591   32.0183    4.5709 C.ar    1  UNL1        0.0045
     18 C          15.1749   31.3142    3.3686 C.ar    1  UNL1        0.0001
     19 C          15.9778   31.8147    2.3402 C.ar    1  UNL1        0.0000
     20 C          16.6650   33.0190    2.5138 C.ar    1  UNL1        0.0001
     21 C          16.5492   33.7232    3.7159 C.ar    1  UNL1        0.0045
     22 O          14.5037   37.8899   11.5845 O.2     1  UNL1       -0.2859
     23 C          15.3761   37.7332   10.6873 C.2     1  UNL1        0.2045
     24 C          16.7745   38.1303   10.9631 C.ar    1  UNL1        0.0587
     25 C          17.1523   39.4789   11.0284 C.ar    1  UNL1        0.1020
     26 C          19.4124   38.8803   11.4392 C.ar    1  UNL1        0.0989
     27 C          19.0870   37.5248   11.3754 C.ar    1  UNL1        0.0208
     28 C          17.7638   37.1532   11.1338 C.ar    1  UNL1        0.0064
     29 N          18.4470   39.8217   11.2649 N.ar    1  UNL1       -0.2422
@<TRIPOS>BOND
     1    13    14   am
     2    13    16    1
     3     1     5   ar
     4     2     4   ar
     5     2     6    1
     6     3     5   ar
     7     3    23    1
     8    23    24    1
     9    25    29   ar
    10    26    27   ar
    11    28    24   ar
    12     7     8   ar
    13     9    10   ar
    14    11     6   ar
    15    17    18   ar
    16    19    20   ar
    17    21    16   ar
    18    14     1    1
    19    13    12    2
    20     1     4   ar
    21     2     3   ar
    22    23    22    2
    23    24    25   ar
    24    26    29   ar
    25    27    28   ar
    26     6     7   ar
    27     8     9   ar
    28    10    11   ar
    29    16    17   ar
    30    18    19   ar
    31    20    21   ar
    32    14    15    1
@<TRIPOS>MOLECULE
MolPort-002-849-478 8715568 LN01251847 MCULE-7792707188 PubChem-11842435 ZINC000008715568 ZINC08715568
 29 32 0 0 0
SMALL
GASTEIGER

@<TRIPOS>ATOM
      1 C          11.9464   42.5764    8.2802 C.ar    1  UNL1        0.1658
      2 C          10.0539   41.3809    8.0355 C.ar    1  UNL1        0.0923
      3 C           9.6715   42.2049    9.1108 C.ar    1  UNL1        0.0886
      4 N          11.3215   41.6019    7.5863 N.ar    1  UNL1       -0.2238
      5 S          10.9679   43.2209    9.4764 S.2     1  UNL1       -0.0481
      6 C           9.2254   40.3123    7.4346 C.ar    1  UNL1        0.0183
      7 C           8.1219   40.6126    6.6211 C.ar    1  UNL1        0.0015
      8 C           7.3284   39.5895    6.0947 C.ar    1  UNL1        0.0000
      9 C           7.6244   38.2559    6.3867 C.ar    1  UNL1        0.0000
     10 C           8.7108   37.9461    7.2087 C.ar    1  UNL1        0.0000
     11 C           9.5038   38.9704    7.7343 C.ar    1  UNL1        0.0015
     12 O          14.2268   40.9072    7.6554 O.2     1  UNL1       -0.2698
     13 C          14.3884   42.1569    7.7157 C.2     1  UNL1        0.2509
     14 N          13.2830   43.0168    8.0228 N.am    1  UNL1       -0.2606
     15 H          13.4571   43.9851    8.0593 H       1  UNL1        0.1571
     16 C          15.7208   42.7361    7.4697 C.ar    1  UNL1        0.0537
     17 C          16.8256   42.3255    8.2309 C.ar    1  UNL1        0.0045
     18 C          18.0894   42.8756    7.9965 C.ar    1  UNL1        0.0001
     19 C          18.2578   43.8402    6.9995 C.ar    1  UNL1        0.0000
     20 C          17.1628   44.2549    6.2368 C.ar    1  UNL1        0.0001
     21 C          15.8990   43.7048    6.4710 C.ar    1  UNL1        0.0045
     22 O           8.1237   41.8143   10.8503 O.2     1  UNL1       -0.2859
     23 C           8.3297   42.3301    9.7180 C.2     1  UNL1        0.2045
     24 C           7.2162   43.0120    9.0221 C.ar    1  UNL1        0.0587
     25 C           7.4087   43.6585    7.7929 C.ar    1  UNL1        0.1020
     26 C           5.1334   44.3324    7.7312 C.ar    1  UNL1        0.0989
     27 C           4.8940   43.7103    8.9572 C.ar    1  UNL1        0.0208
     28 C           5.9417   43.0518    9.6022 C.ar    1  UNL1        0.0064
     29 N           6.3753   44.2951    7.1793 N.ar    1  UNL1       -0.2422
@<TRIPOS>BOND
     1    13    14   am
     2    13    16    1
     3     1     5   ar
     4     2     4   ar
     5     2     6    1
     6     3     5   ar
     7     3    23    1
     8    23    24    1
     9    25    29   ar
    10    26    27   ar
    11    28    24   ar
    12     7     8   ar
    13     9    10   ar
    14    11     6   ar
    15    17    18   ar
    16    19    20   ar
    17    21    16   ar
    18    14     1    1
    19    13    12    2
    20     1     4   ar
    21     2     3   ar
    22    23    22    2
    23    24    25   ar
    24    26    29   ar
    25    27    28   ar
    26     6     7   ar
    27     8     9   ar
    28    10    11   ar
    29    16    17   ar
    30    18    19   ar
    31    20    21   ar
    32    14    15    1
@<TRIPOS>MOLECULE
MolPort-002-849-478 8715568 LN01251847 MCULE-7792707188 PubChem-11842435 ZINC000008715568 ZINC08715568
 29 32 0 0 0
SMALL
GASTEIGER

@<TRIPOS>ATOM
      1 C          12.6281   41.9621    6.7364 C.ar    1  UNL1        0.1658
      2 C          10.9909   40.6863    5.8628 C.ar    1  UNL1        0.0923
      3 C          10.3785   41.0524    7.0762 C.ar    1  UNL1        0.0886
      4 N          12.2407   41.2018    5.6907 N.ar    1  UNL1       -0.2238
      5 S          11.4488   42.0449    7.9224 S.2     1  UNL1       -0.0481
      6 C          10.4107   39.7816    4.8459 C.ar    1  UNL1        0.0183
      7 C           9.0902   39.9371    4.3968 C.ar    1  UNL1        0.0015
      8 C           8.5478   39.0482    3.4645 C.ar    1  UNL1        0.0000
      9 C           9.3179   37.9877    2.9810 C.ar    1  UNL1        0.0000
     10 C          10.6282   37.8138    3.4334 C.ar    1  UNL1        0.0000
     11 C          11.1695   38.7038    4.3656 C.ar    1  UNL1        0.0015
     12 O          14.9742   41.0407    8.1588 O.2     1  UNL1       -0.2698
     13 C          15.0328   42.1379    7.5390 C.2     1  UNL1        0.2509
     14 N          13.8913   42.6278    6.8229 N.am    1  UNL1       -0.2606
     15 H          13.9841   43.4888    6.3546 H       1  UNL1        0.1571
     16 C          16.2812   42.9206    7.5512 C.ar    1  UNL1        0.0537
     17 C          16.7487   43.5309    6.3774 C.ar    1  UNL1        0.0045
     18 C          17.9333   44.2733    6.3901 C.ar    1  UNL1        0.0001
     19 C          18.6591   44.4110    7.5763 C.ar    1  UNL1        0.0000
     20 C          18.2007   43.8064    8.7498 C.ar    1  UNL1        0.0001
     21 C          17.0162   43.0640    8.7373 C.ar    1  UNL1        0.0045
     22 O           8.6288   39.6148    7.7441 O.2     1  UNL1       -0.2859
     23 C           8.9837   40.7990    7.4947 C.2     1  UNL1        0.2045
     24 C           7.9870   41.8878    7.5963 C.ar    1  UNL1        0.0587
     25 C           7.4880   42.3089    8.8370 C.ar    1  UNL1        0.1020
     26 C           6.0801   43.9064    7.7878 C.ar    1  UNL1        0.0989
     27 C           6.5404   43.5168    6.5294 C.ar    1  UNL1        0.0208
     28 C           7.4945   42.5025    6.4378 C.ar    1  UNL1        0.0064
     29 N           6.5583   43.2992    8.9063 N.ar    1  UNL1       -0.2422
@<TRIPOS>BOND
     1    13    14   am
     2    13    16    1
     3     1     5   ar
     4     2     4   ar
     5     2     6    1
     6     3     5   ar
     7     3    23    1
     8    23    24    1
     9    25    29   ar
    10    26    27   ar
    11    28    24   ar
    12     7     8   ar
    13     9    10   ar
    14    11     6   ar
    15    17    18   ar
    16    19    20   ar
    17    21    16   ar
    18    14     1    1
    19    13    12    2
    20     1     4   ar
    21     2     3   ar
    22    23    22    2
    23    24    25   ar
    24    26    29   ar
    25    27    28   ar
    26     6     7   ar
    27     8     9   ar
    28    10    11   ar
    29    16    17   ar
    30    18    19   ar
    31    20    21   ar
    32    14    15    1
