@<TRIPOS>MOLECULE
MolPort-047-592-001 201908715 MCULE-5716414802 PubChem-144812354 PubChem-59619819 ZINC000201908715
 22 23 0 0 0
SMALL
GASTEIGER

@<TRIPOS>ATOM
      1 C           9.7092   42.1546    9.0332 C.ar    1  UNL1        0.0000
      2 C           9.5768   42.1381   10.4220 C.ar    1  UNL1        0.0000
      3 C          10.4435   41.3745   11.2064 C.ar    1  UNL1        0.0000
      4 C          11.4822   40.6614   10.5737 C.ar    1  UNL1        0.0000
      5 C          10.7267   41.4058    8.4408 C.ar    1  UNL1        0.0000
      6 N          11.5838   40.6882    9.2138 N.ar    1  UNL1        0.0000
      7 B           8.7280   42.9994    8.1520 B       1  UNL1        0.0000
      8 O           7.6517   43.7254    8.8050 O.3     1  UNL1        0.0000
      9 O           8.3433   42.4864    6.8477 O.3     1  UNL1        0.0000
     10 C           6.5222   43.0494    8.3190 C.3     1  UNL1        0.0000
     11 C           6.9773   42.2310    7.0401 C.3     1  UNL1        0.0000
     12 C           6.7807   40.7193    7.1761 C.3     1  UNL1        0.0000
     13 C           6.2479   42.6456    5.7653 C.3     1  UNL1        0.0000
     14 C           5.9606   42.1735    9.4407 C.3     1  UNL1        0.0000
     15 C           5.4550   44.0978    8.0172 C.3     1  UNL1        0.0000
     16 O           7.9511   41.1732   12.7251 O.2     1  UNL1        0.0000
     17 C           9.0555   41.1615   13.3305 C.2     1  UNL1        0.0000
     18 C           9.0816   40.9594   14.8021 C.3     1  UNL1        0.0000
     19 N          10.2806   41.3998   12.6303 N.am    1  UNL1        0.0000
     20 H          11.0784   41.5977   13.1721 H       1  UNL1        0.0000
     21 O          12.4216   39.9593   11.3326 O.3     1  UNL1        0.0000
     22 C          13.7241   39.6726   10.8461 C.3     1  UNL1        0.0000
@<TRIPOS>BOND
     1     7     8    1
     2     7     1    1
     3     7     9    1
     4    10     8    1
     5    10    11    1
     6    10    14    1
     7    10    15    1
     8    11     9    1
     9    11    12    1
    10    11    13    1
    11     2     3   ar
    12     3    19    1
    13     4     6   ar
    14     4    21    1
    15     5     1   ar
    16    22    21    1
    17    18    17    1
    18    19    17   am
    19     1     2   ar
    20     3     4   ar
    21     5     6   ar
    22    17    16    2
    23    19    20    1
@<TRIPOS>MOLECULE
MolPort-047-592-001 201908715 MCULE-5716414802 PubChem-144812354 PubChem-59619819 ZINC000201908715
 22 23 0 0 0
SMALL
GASTEIGER

@<TRIPOS>ATOM
      1 C          13.8804   41.3904    7.6176 C.ar    1  UNL1        0.0000
      2 C          14.8473   40.7974    8.4301 C.ar    1  UNL1        0.0000
      3 C          16.0956   41.3996    8.5993 C.ar    1  UNL1        0.0000
      4 C          16.3420   42.6393    7.9746 C.ar    1  UNL1        0.0000
      5 C          14.1752   42.5990    6.9858 C.ar    1  UNL1        0.0000
      6 N          15.3823   43.1929    7.1791 N.ar    1  UNL1        0.0000
      7 B          12.4855   40.7076    7.4157 B       1  UNL1        0.0000
      8 O          11.2842   41.4826    7.6772 O.3     1  UNL1        0.0000
      9 O          12.3349   39.3075    7.7752 O.3     1  UNL1        0.0000
     10 C          10.7572   40.8150    8.7934 C.3     1  UNL1        0.0000
     11 C          11.4518   39.3918    8.8621 C.3     1  UNL1        0.0000
     12 C          12.2437   39.1562   10.1503 C.3     1  UNL1        0.0000
     13 C          10.4670   38.2318    8.7455 C.3     1  UNL1        0.0000
     14 C          10.9998   41.6772   10.0339 C.3     1  UNL1        0.0000
     15 C           9.2439   40.7407    8.6110 C.3     1  UNL1        0.0000
     16 O          15.5845   39.4237   10.6953 O.2     1  UNL1        0.0000
     17 C          16.7699   39.7025   10.3738 C.2     1  UNL1        0.0000
     18 C          17.8930   38.9615   11.0037 C.3     1  UNL1        0.0000
     19 N          17.0528   40.7631    9.4557 N.am    1  UNL1        0.0000
     20 H          17.9829   41.0824    9.4082 H       1  UNL1        0.0000
     21 O          17.5453   43.3141    8.1934 O.3     1  UNL1        0.0000
     22 C          18.1295   44.1557    7.2106 C.3     1  UNL1        0.0000
@<TRIPOS>BOND
     1     7     8    1
     2     7     1    1
     3     7     9    1
     4    10     8    1
     5    10    11    1
     6    10    14    1
     7    10    15    1
     8    11     9    1
     9    11    12    1
    10    11    13    1
    11     2     3   ar
    12     3    19    1
    13     4     6   ar
    14     4    21    1
    15     5     1   ar
    16    22    21    1
    17    18    17    1
    18    19    17   am
    19     1     2   ar
    20     3     4   ar
    21     5     6   ar
    22    17    16    2
    23    19    20    1
@<TRIPOS>MOLECULE
MolPort-047-592-001 201908715 MCULE-5716414802 PubChem-144812354 PubChem-59619819 ZINC000201908715
 22 23 0 0 0
SMALL
GASTEIGER

@<TRIPOS>ATOM
      1 C          14.8988   41.0604    8.3001 C.ar    1  UNL1        0.0000
      2 C          13.6785   41.0687    7.6236 C.ar    1  UNL1        0.0000
      3 C          13.3275   42.1482    6.8106 C.ar    1  UNL1        0.0000
      4 C          14.2479   43.2038    6.6482 C.ar    1  UNL1        0.0000
      5 C          15.7673   42.1411    8.1436 C.ar    1  UNL1        0.0000
      6 N          15.4302   43.1743    7.3276 N.ar    1  UNL1        0.0000
      7 B          15.2864   39.8565    9.2238 B       1  UNL1        0.0000
      8 O          15.0369   38.5051    8.7513 O.3     1  UNL1        0.0000
      9 O          15.0987   39.9889   10.6589 O.3     1  UNL1        0.0000
     10 C          14.0480   38.0726    9.6480 C.3     1  UNL1        0.0000
     11 C          14.0833   39.0501   10.8953 C.3     1  UNL1        0.0000
     12 C          12.7703   39.8025   11.1236 C.3     1  UNL1        0.0000
     13 C          14.4070   38.3435   12.2087 C.3     1  UNL1        0.0000
     14 C          12.7036   38.0574    8.9177 C.3     1  UNL1        0.0000
     15 C          14.3579   36.6223   10.0079 C.3     1  UNL1        0.0000
     16 O          10.8160   40.9719    7.7418 O.2     1  UNL1        0.0000
     17 C          10.8359   41.6409    6.6749 C.2     1  UNL1        0.0000
     18 C           9.5663   41.8964    5.9470 C.3     1  UNL1        0.0000
     19 N          12.0709   42.1072    6.1222 N.am    1  UNL1        0.0000
     20 H          12.0562   42.4265    5.1910 H       1  UNL1        0.0000
     21 O          13.9689   44.2564    5.7732 O.3     1  UNL1        0.0000
     22 C          14.8703   45.3355    5.5773 C.3     1  UNL1        0.0000
@<TRIPOS>BOND
     1     7     8    1
     2     7     1    1
     3     7     9    1
     4    10     8    1
     5    10    11    1
     6    10    14    1
     7    10    15    1
     8    11     9    1
     9    11    12    1
    10    11    13    1
    11     2     3   ar
    12     3    19    1
    13     4     6   ar
    14     4    21    1
    15     5     1   ar
    16    22    21    1
    17    18    17    1
    18    19    17   am
    19     1     2   ar
    20     3     4   ar
    21     5     6   ar
    22    17    16    2
    23    19    20    1
@<TRIPOS>MOLECULE
MolPort-047-592-001 201908715 MCULE-5716414802 PubChem-144812354 PubChem-59619819 ZINC000201908715
 22 23 0 0 0
SMALL
GASTEIGER

@<TRIPOS>ATOM
      1 C          12.7078   41.1908    7.9997 C.ar    1  UNL1        0.0000
      2 C          13.8983   40.7793    8.5999 C.ar    1  UNL1        0.0000
      3 C          15.1069   41.3961    8.2707 C.ar    1  UNL1        0.0000
      4 C          15.0944   42.4720    7.3596 C.ar    1  UNL1        0.0000
      5 C          12.7414   42.2346    7.0743 C.ar    1  UNL1        0.0000
      6 N          13.9180   42.8486    6.7813 N.ar    1  UNL1        0.0000
      7 B          11.3541   40.4893    8.3577 B       1  UNL1        0.0000
      8 O          11.0947   39.1607    7.8289 O.3     1  UNL1        0.0000
      9 O          10.1504   41.2989    8.4463 O.3     1  UNL1        0.0000
     10 C          10.0224   39.4097    6.9587 C.3     1  UNL1        0.0000
     11 C           9.4080   40.8151    7.3586 C.3     1  UNL1        0.0000
     12 C           9.4627   41.8519    6.2342 C.3     1  UNL1        0.0000
     13 C           7.9485   40.7345    7.7974 C.3     1  UNL1        0.0000
     14 C          10.5411   39.3531    5.5204 C.3     1  UNL1        0.0000
     15 C           9.0354   38.2549    7.1053 C.3     1  UNL1        0.0000
     16 O          15.3285   39.5822   10.5553 O.2     1  UNL1        0.0000
     17 C          16.3679   39.9575    9.9511 C.2     1  UNL1        0.0000
     18 C          17.6877   39.4063   10.3530 C.3     1  UNL1        0.0000
     19 N          16.3030   40.9515    8.9237 N.am    1  UNL1        0.0000
     20 H          17.1509   41.3647    8.6417 H       1  UNL1        0.0000
     21 O          16.2701   43.1706    7.0749 O.3     1  UNL1        0.0000
     22 C          16.3914   44.0152    5.9403 C.3     1  UNL1        0.0000
@<TRIPOS>BOND
     1     7     8    1
     2     7     1    1
     3     7     9    1
     4    10     8    1
     5    10    11    1
     6    10    14    1
     7    10    15    1
     8    11     9    1
     9    11    12    1
    10    11    13    1
    11     2     3   ar
    12     3    19    1
    13     4     6   ar
    14     4    21    1
    15     5     1   ar
    16    22    21    1
    17    18    17    1
    18    19    17   am
    19     1     2   ar
    20     3     4   ar
    21     5     6   ar
    22    17    16    2
    23    19    20    1
@<TRIPOS>MOLECULE
MolPort-047-592-001 201908715 MCULE-5716414802 PubChem-144812354 PubChem-59619819 ZINC000201908715
 22 23 0 0 0
SMALL
GASTEIGER

@<TRIPOS>ATOM
      1 C          13.0834   40.1789    8.2653 C.ar    1  UNL1        0.0000
      2 C          13.6276   41.2258    7.5206 C.ar    1  UNL1        0.0000
      3 C          14.8959   41.7250    7.8234 C.ar    1  UNL1        0.0000
      4 C          15.6339   41.1203    8.8615 C.ar    1  UNL1        0.0000
      5 C          13.8294   39.6313    9.3096 C.ar    1  UNL1        0.0000
      6 N          15.0748   40.1040    9.5790 N.ar    1  UNL1        0.0000
      7 B          11.6547   39.6286    7.9354 B       1  UNL1        0.0000
      8 O          11.2539   39.5163    6.5430 O.3     1  UNL1        0.0000
      9 O          10.5489   39.9902    8.8065 O.3     1  UNL1        0.0000
     10 C          10.2276   40.4705    6.4688 C.3     1  UNL1        0.0000
     11 C           9.7706   40.7868    7.9533 C.3     1  UNL1        0.0000
     12 C           9.9562   42.2521    8.3542 C.3     1  UNL1        0.0000
     13 C           8.3059   40.4513    8.2199 C.3     1  UNL1        0.0000
     14 C          10.7549   41.6930    5.7150 C.3     1  UNL1        0.0000
     15 C           9.1149   39.8810    5.6067 C.3     1  UNL1        0.0000
     16 O          13.4098   43.8724    6.5048 O.2     1  UNL1        0.0000
     17 C          14.6691   43.8948    6.5104 C.2     1  UNL1        0.0000
     18 C          15.3833   45.0566    5.9211 C.3     1  UNL1        0.0000
     19 N          15.4220   42.7905    7.0218 N.am    1  UNL1        0.0000
     20 H          16.3818   42.7602    6.8050 H       1  UNL1        0.0000
     21 O          16.9402   41.5338    9.1335 O.3     1  UNL1        0.0000
     22 C          17.7747   42.1061    8.1378 C.3     1  UNL1        0.0000
@<TRIPOS>BOND
     1     7     8    1
     2     7     1    1
     3     7     9    1
     4    10     8    1
     5    10    11    1
     6    10    14    1
     7    10    15    1
     8    11     9    1
     9    11    12    1
    10    11    13    1
    11     2     3   ar
    12     3    19    1
    13     4     6   ar
    14     4    21    1
    15     5     1   ar
    16    22    21    1
    17    18    17    1
    18    19    17   am
    19     1     2   ar
    20     3     4   ar
    21     5     6   ar
    22    17    16    2
    23    19    20    1
@<TRIPOS>MOLECULE
MolPort-047-592-001 201908715 MCULE-5716414802 PubChem-144812354 PubChem-59619819 ZINC000201908715
 22 23 0 0 0
SMALL
GASTEIGER

@<TRIPOS>ATOM
      1 C          12.8933   41.2128    7.3096 C.ar    1  UNL1        0.0000
      2 C          13.4460   40.4813    8.3613 C.ar    1  UNL1        0.0000
      3 C          14.7619   40.7106    8.7680 C.ar    1  UNL1        0.0000
      4 C          15.5029   41.7262    8.1299 C.ar    1  UNL1        0.0000
      5 C          13.6709   42.1839    6.6779 C.ar    1  UNL1        0.0000
      6 N          14.9412   42.4206    7.0990 N.ar    1  UNL1        0.0000
      7 B          11.4222   40.9456    6.8435 B       1  UNL1        0.0000
      8 O          10.3501   41.7330    7.4289 O.3     1  UNL1        0.0000
      9 O          11.0179   39.5794    6.5568 O.3     1  UNL1        0.0000
     10 C           9.6439   40.7556    8.1465 C.3     1  UNL1        0.0000
     11 C          10.0875   39.3432    7.5799 C.3     1  UNL1        0.0000
     12 C          10.7382   38.4376    8.6281 C.3     1  UNL1        0.0000
     13 C           8.9352   38.5438    6.9781 C.3     1  UNL1        0.0000
     14 C           9.9387   40.9395    9.6366 C.3     1  UNL1        0.0000
     15 C           8.1555   41.0392    7.9648 C.3     1  UNL1        0.0000
     16 O          13.3631   39.8914   11.2034 O.2     1  UNL1        0.0000
     17 C          14.5213   39.4552   10.9702 C.2     1  UNL1        0.0000
     18 C          15.1293   38.4622   11.8930 C.3     1  UNL1        0.0000
     19 N          15.2834   39.9468    9.8632 N.am    1  UNL1        0.0000
     20 H          16.2466   39.7434    9.8529 H       1  UNL1        0.0000
     21 O          16.7903   42.0441    8.5693 O.3     1  UNL1        0.0000
     22 C          17.2840   43.3751    8.5625 C.3     1  UNL1        0.0000
@<TRIPOS>BOND
     1     7     8    1
     2     7     1    1
     3     7     9    1
     4    10     8    1
     5    10    11    1
     6    10    14    1
     7    10    15    1
     8    11     9    1
     9    11    12    1
    10    11    13    1
    11     2     3   ar
    12     3    19    1
    13     4     6   ar
    14     4    21    1
    15     5     1   ar
    16    22    21    1
    17    18    17    1
    18    19    17   am
    19     1     2   ar
    20     3     4   ar
    21     5     6   ar
    22    17    16    2
    23    19    20    1
@<TRIPOS>MOLECULE
MolPort-047-592-001 201908715 MCULE-5716414802 PubChem-144812354 PubChem-59619819 ZINC000201908715
 22 23 0 0 0
SMALL
GASTEIGER

@<TRIPOS>ATOM
      1 C          12.5997   41.7193    8.3159 C.ar    1  UNL1        0.0000
      2 C          13.5106   42.3766    7.4882 C.ar    1  UNL1        0.0000
      3 C          14.8822   42.1577    7.6309 C.ar    1  UNL1        0.0000
      4 C          15.3249   41.2257    8.5917 C.ar    1  UNL1        0.0000
      5 C          13.0788   40.8323    9.2804 C.ar    1  UNL1        0.0000
      6 N          14.4137   40.6033    9.3933 N.ar    1  UNL1        0.0000
      7 B          11.0620   41.9758    8.1659 B       1  UNL1        0.0000
      8 O          10.3017   42.3690    9.3403 O.3     1  UNL1        0.0000
      9 O          10.2978   41.1298    7.2645 O.3     1  UNL1        0.0000
     10 C           9.4700   41.2536    9.5224 C.3     1  UNL1        0.0000
     11 C           9.4735   40.4369    8.1638 C.3     1  UNL1        0.0000
     12 C          10.0042   39.0086    8.3070 C.3     1  UNL1        0.0000
     13 C           8.0924   40.3196    7.5250 C.3     1  UNL1        0.0000
     14 C           9.9855   40.4541   10.7207 C.3     1  UNL1        0.0000
     15 C           8.0883   41.7707    9.9131 C.3     1  UNL1        0.0000
     16 O          16.8043   44.2557    8.3109 O.2     1  UNL1        0.0000
     17 C          16.7975   43.7654    7.1508 C.2     1  UNL1        0.0000
     18 C          17.8229   44.1985    6.1668 C.3     1  UNL1        0.0000
     19 N          15.7806   42.8424    6.7485 N.am    1  UNL1        0.0000
     20 H          15.6905   42.6626    5.7847 H       1  UNL1        0.0000
     21 O          16.6824   40.9148    8.7016 O.3     1  UNL1        0.0000
     22 C          17.2353   40.3495    9.8806 C.3     1  UNL1        0.0000
@<TRIPOS>BOND
     1     7     8    1
     2     7     1    1
     3     7     9    1
     4    10     8    1
     5    10    11    1
     6    10    14    1
     7    10    15    1
     8    11     9    1
     9    11    12    1
    10    11    13    1
    11     2     3   ar
    12     3    19    1
    13     4     6   ar
    14     4    21    1
    15     5     1   ar
    16    22    21    1
    17    18    17    1
    18    19    17   am
    19     1     2   ar
    20     3     4   ar
    21     5     6   ar
    22    17    16    2
    23    19    20    1
@<TRIPOS>MOLECULE
MolPort-047-592-001 201908715 MCULE-5716414802 PubChem-144812354 PubChem-59619819 ZINC000201908715
 22 23 0 0 0
SMALL
GASTEIGER

@<TRIPOS>ATOM
      1 C           9.8058   41.2604    7.4392 C.ar    1  UNL1        0.0000
      2 C          10.6896   41.8583    6.5402 C.ar    1  UNL1        0.0000
      3 C          12.0687   41.7042    6.6952 C.ar    1  UNL1        0.0000
      4 C          12.5480   40.8950    7.7455 C.ar    1  UNL1        0.0000
      5 C          10.3199   40.4976    8.4883 C.ar    1  UNL1        0.0000
      6 N          11.6625   40.3290    8.6149 N.ar    1  UNL1        0.0000
      7 B           8.2594   41.4452    7.2743 B       1  UNL1        0.0000
      8 O           7.7457   42.7612    6.9332 O.3     1  UNL1        0.0000
      9 O           7.3703   40.7120    8.1598 O.3     1  UNL1        0.0000
     10 C           7.0373   43.0960    8.0973 C.3     1  UNL1        0.0000
     11 C           6.7978   41.7535    8.9053 C.3     1  UNL1        0.0000
     12 C           7.4277   41.7552   10.3001 C.3     1  UNL1        0.0000
     13 C           5.3214   41.4208    9.1017 C.3     1  UNL1        0.0000
     14 C           7.8413   44.1431    8.8707 C.3     1  UNL1        0.0000
     15 C           5.7434   43.7805    7.6656 C.3     1  UNL1        0.0000
     16 O          13.7518   44.0667    7.0753 O.2     1  UNL1        0.0000
     17 C          13.8449   43.3964    6.0131 C.2     1  UNL1        0.0000
     18 C          14.8696   43.7646    5.0023 C.3     1  UNL1        0.0000
     19 N          12.9388   42.3232    5.7389 N.am    1  UNL1        0.0000
     20 H          12.9108   41.9813    4.8161 H       1  UNL1        0.0000
     21 O          13.9161   40.6456    7.8776 O.3     1  UNL1        0.0000
     22 C          14.5638   40.6345    9.1408 C.3     1  UNL1        0.0000
@<TRIPOS>BOND
     1     7     8    1
     2     7     1    1
     3     7     9    1
     4    10     8    1
     5    10    11    1
     6    10    14    1
     7    10    15    1
     8    11     9    1
     9    11    12    1
    10    11    13    1
    11     2     3   ar
    12     3    19    1
    13     4     6   ar
    14     4    21    1
    15     5     1   ar
    16    22    21    1
    17    18    17    1
    18    19    17   am
    19     1     2   ar
    20     3     4   ar
    21     5     6   ar
    22    17    16    2
    23    19    20    1
@<TRIPOS>MOLECULE
MolPort-047-592-001 201908715 MCULE-5716414802 PubChem-144812354 PubChem-59619819 ZINC000201908715
 22 23 0 0 0
SMALL
GASTEIGER

@<TRIPOS>ATOM
      1 C          12.4310   40.4027    9.9012 C.ar    1  UNL1        0.0000
      2 C          12.8727   41.2195    8.8599 C.ar    1  UNL1        0.0000
      3 C          14.2321   41.3008    8.5521 C.ar    1  UNL1        0.0000
      4 C          15.1420   40.5067    9.2796 C.ar    1  UNL1        0.0000
      5 C          13.3662   39.6603   10.6230 C.ar    1  UNL1        0.0000
      6 N          14.6844   39.7232   10.2980 N.ar    1  UNL1        0.0000
      7 B          10.9077   40.3227   10.2563 B       1  UNL1        0.0000
      8 O           9.9469   40.1593    9.1782 O.3     1  UNL1        0.0000
      9 O          10.3982   41.1509   11.3364 O.3     1  UNL1        0.0000
     10 C           9.2602   41.3820    9.2269 C.3     1  UNL1        0.0000
     11 C           9.5622   42.0358   10.6390 C.3     1  UNL1        0.0000
     12 C          10.2604   43.3948   10.5502 C.3     1  UNL1        0.0000
     13 C           8.3111   42.2507   11.4862 C.3     1  UNL1        0.0000
     14 C           9.7122   42.2402    8.0437 C.3     1  UNL1        0.0000
     15 C           7.7800   41.0859    9.0023 C.3     1  UNL1        0.0000
     16 O          12.7405   41.9134    6.1111 O.2     1  UNL1        0.0000
     17 C          13.8184   42.5178    6.3541 C.2     1  UNL1        0.0000
     18 C          14.2753   43.5962    5.4399 C.3     1  UNL1        0.0000
     19 N          14.6392   42.1405    7.4640 N.am    1  UNL1        0.0000
     20 H          15.5606   42.4867    7.4817 H       1  UNL1        0.0000
     21 O          16.4971   40.4943    8.9410 O.3     1  UNL1        0.0000
     22 C          17.3116   41.6528    9.0403 C.3     1  UNL1        0.0000
@<TRIPOS>BOND
     1     7     8    1
     2     7     1    1
     3     7     9    1
     4    10     8    1
     5    10    11    1
     6    10    14    1
     7    10    15    1
     8    11     9    1
     9    11    12    1
    10    11    13    1
    11     2     3   ar
    12     3    19    1
    13     4     6   ar
    14     4    21    1
    15     5     1   ar
    16    22    21    1
    17    18    17    1
    18    19    17   am
    19     1     2   ar
    20     3     4   ar
    21     5     6   ar
    22    17    16    2
    23    19    20    1
@<TRIPOS>MOLECULE
MolPort-047-592-001 201908715 MCULE-5716414802 PubChem-144812354 PubChem-59619819 ZINC000201908715
 22 23 0 0 0
SMALL
GASTEIGER

@<TRIPOS>ATOM
      1 C          11.3832   40.6515    9.3786 C.ar    1  UNL1        0.0000
      2 C          12.6713   40.6541    9.9147 C.ar    1  UNL1        0.0000
      3 C          13.2398   39.4731   10.3961 C.ar    1  UNL1        0.0000
      4 C          12.5084   38.2729   10.2855 C.ar    1  UNL1        0.0000
      5 C          10.6761   39.4500    9.3206 C.ar    1  UNL1        0.0000
      6 N          11.2481   38.3000    9.7649 N.ar    1  UNL1        0.0000
      7 B          10.7395   41.9786    8.8520 B       1  UNL1        0.0000
      8 O          10.5554   43.0817    9.7801 O.3     1  UNL1        0.0000
      9 O           9.6741   41.8950    7.8670 O.3     1  UNL1        0.0000
     10 C           9.1560   43.1585    9.8504 C.3     1  UNL1        0.0000
     11 C           8.5780   42.3739    8.6002 C.3     1  UNL1        0.0000
     12 C           7.6901   41.1858    8.9773 C.3     1  UNL1        0.0000
     13 C           7.7480   43.2506    7.6667 C.3     1  UNL1        0.0000
     14 C           8.7054   42.5866   11.1961 C.3     1  UNL1        0.0000
     15 C           8.7779   44.6369    9.8635 C.3     1  UNL1        0.0000
     16 O          15.7042   38.5554    9.1142 O.2     1  UNL1        0.0000
     17 C          15.7623   39.1832   10.2045 C.2     1  UNL1        0.0000
     18 C          17.0873   39.5247   10.7830 C.3     1  UNL1        0.0000
     19 N          14.5717   39.5195   10.9238 N.am    1  UNL1        0.0000
     20 H          14.6763   39.8069   11.8596 H       1  UNL1        0.0000
     21 O          13.0798   37.0588   10.6740 O.3     1  UNL1        0.0000
     22 C          12.5737   35.8089   10.2301 C.3     1  UNL1        0.0000
@<TRIPOS>BOND
     1     7     8    1
     2     7     1    1
     3     7     9    1
     4    10     8    1
     5    10    11    1
     6    10    14    1
     7    10    15    1
     8    11     9    1
     9    11    12    1
    10    11    13    1
    11     2     3   ar
    12     3    19    1
    13     4     6   ar
    14     4    21    1
    15     5     1   ar
    16    22    21    1
    17    18    17    1
    18    19    17   am
    19     1     2   ar
    20     3     4   ar
    21     5     6   ar
    22    17    16    2
    23    19    20    1
