@<TRIPOS>MOLECULE
MolPort-045-956-744 822752156 CSSS00160217614 MCULE-1807625006 PubChem-131896646 ZINC000822752156
 29 30 0 0 0
SMALL
GASTEIGER

@<TRIPOS>ATOM
      1 C          12.5330   41.4125    6.9164 C.ar    1  UNL1        0.0848
      2 C          13.0715   41.3962    8.2068 C.ar    1  UNL1        0.0190
      3 C          12.5844   40.5101    9.1684 C.ar    1  UNL1        0.0162
      4 C          11.5329   39.6390    8.8575 C.ar    1  UNL1        0.0537
      5 C          10.9812   39.6621    7.5750 C.ar    1  UNL1        0.0528
      6 C          11.4577   40.5545    6.5996 C.ar    1  UNL1        0.1533
      7 C          14.1089   43.2910    6.2395 C.2     1  UNL1        0.2262
      8 O          14.4410   43.5675    7.4238 O.2     1  UNL1       -0.2748
      9 N          13.0620   42.3530    5.9730 N.am    1  UNL1       -0.2815
     10 H          12.6735   42.3535    5.0683 H       1  UNL1        0.1549
     11 C          14.7694   43.9922    5.1008 C.3     1  UNL1        0.0854
     12 C          17.1953   44.0264    5.6905 C.3     1  UNL1        0.0005
     13 C          15.9265   44.8521    5.5856 C.3     1  UNL1        0.0096
     14 C          11.6029   37.3983   10.0831 C.2     1  UNL1        0.2518
     15 O          10.8271   36.4618   10.4109 O.2     1  UNL1       -0.2697
     16 N          11.0397   38.6895    9.8106 N.am    1  UNL1       -0.2802
     17 H          10.2412   38.9467   10.3258 H       1  UNL1        0.1552
     18 C          13.0651   37.1617   10.0616 C.ar    1  UNL1        0.0842
     19 C          13.9288   37.8320   10.9498 C.ar    1  UNL1        0.1804
     20 C          15.3151   37.6149   10.9015 C.ar    1  UNL1        0.1933
     21 C          15.8396   36.7204    9.9419 C.ar    1  UNL1        0.1761
     22 C          14.9828   36.0662    9.0559 C.ar    1  UNL1        0.0331
     23 C          13.6081   36.2872    9.1128 C.ar    1  UNL1        0.0093
     24 F          13.4281   38.6827   11.8826 F       1  UNL1       -0.2007
     25 F          17.1690   36.4725    9.8492 F       1  UNL1       -0.2009
     26 C          17.1109   39.2580   11.4640 C.3     1  UNL1        0.2527
     27 O          16.1190   38.3059   11.8210 O.3     1  UNL1       -0.4669
     28 C          10.9186   39.5559    4.3966 C.3     1  UNL1        0.2525
     29 O          10.8562   40.6192    5.3375 O.3     1  UNL1       -0.4701
@<TRIPOS>BOND
     1    12    13    1
     2    13    11    1
     3    11     7    1
     4     7     9   am
     5     2     3   ar
     6     4    16    1
     7     4     5   ar
     8    14    18    1
     9    19    24    1
    10    19    20   ar
    11    20    27    1
    12    26    27    1
    13    21    25    1
    14    21    22   ar
    15    23    18   ar
    16     6    29    1
    17     6     1   ar
    18    28    29    1
    19     9     1    1
    20    16    14   am
    21     7     8    2
    22     1     2   ar
    23     3     4   ar
    24    14    15    2
    25    18    19   ar
    26    20    21   ar
    27    22    23   ar
    28     5     6   ar
    29     9    10    1
    30    16    17    1
@<TRIPOS>MOLECULE
MolPort-045-956-744 822752156 CSSS00160217614 MCULE-1807625006 PubChem-131896646 ZINC000822752156
 29 30 0 0 0
SMALL
GASTEIGER

@<TRIPOS>ATOM
      1 C          13.6079   41.8774    6.8671 C.ar    1  UNL1        0.0848
      2 C          12.6677   42.2668    5.9081 C.ar    1  UNL1        0.0190
      3 C          11.5215   41.5025    5.6860 C.ar    1  UNL1        0.0162
      4 C          11.3096   40.3215    6.4081 C.ar    1  UNL1        0.0537
      5 C          12.2532   39.9200    7.3560 C.ar    1  UNL1        0.0528
      6 C          13.4150   40.6768    7.5842 C.ar    1  UNL1        0.1533
      7 C          15.2061   43.7211    6.1480 C.2     1  UNL1        0.2262
      8 O          14.7554   43.7842    4.9724 O.2     1  UNL1       -0.2748
      9 N          14.7736   42.6926    7.0436 N.am    1  UNL1       -0.2815
     10 H          15.3208   42.5317    7.8461 H       1  UNL1        0.1549
     11 C          16.2479   44.6898    6.5961 C.3     1  UNL1        0.0854
     12 C          17.7690   43.8313    8.3803 C.3     1  UNL1        0.0005
     13 C          17.5634   43.9832    6.8845 C.3     1  UNL1        0.0096
     14 C           9.1690   39.2115    7.2528 C.2     1  UNL1        0.2518
     15 O           8.5760   38.1023    7.1878 O.2     1  UNL1       -0.2697
     16 N          10.1228   39.5381    6.2319 N.am    1  UNL1       -0.2802
     17 H           9.9456   39.1923    5.3274 H       1  UNL1        0.1552
     18 C           8.8141   40.1675    8.3272 C.ar    1  UNL1        0.0842
     19 C           7.5939   40.8713    8.3079 C.ar    1  UNL1        0.1804
     20 C           7.2820   41.7918    9.3211 C.ar    1  UNL1        0.1933
     21 C           8.2125   42.0142   10.3607 C.ar    1  UNL1        0.1761
     22 C           9.4251   41.3240   10.3713 C.ar    1  UNL1        0.0331
     23 C           9.7250   40.4112    9.3620 C.ar    1  UNL1        0.0093
     24 F           6.6907   40.6512    7.3178 F       1  UNL1       -0.2007
     25 F           7.9648   42.8909   11.3643 F       1  UNL1       -0.2009
     26 C           5.8242   43.6678    8.5484 C.3     1  UNL1        0.2527
     27 O           6.0457   42.4519    9.2486 O.3     1  UNL1       -0.4669
     28 C          14.1539   40.1258    9.8845 C.3     1  UNL1        0.2525
     29 O          14.3886   40.2341    8.4870 O.3     1  UNL1       -0.4701
@<TRIPOS>BOND
     1    12    13    1
     2    13    11    1
     3    11     7    1
     4     7     9   am
     5     2     3   ar
     6     4    16    1
     7     4     5   ar
     8    14    18    1
     9    19    24    1
    10    19    20   ar
    11    20    27    1
    12    26    27    1
    13    21    25    1
    14    21    22   ar
    15    23    18   ar
    16     6    29    1
    17     6     1   ar
    18    28    29    1
    19     9     1    1
    20    16    14   am
    21     7     8    2
    22     1     2   ar
    23     3     4   ar
    24    14    15    2
    25    18    19   ar
    26    20    21   ar
    27    22    23   ar
    28     5     6   ar
    29     9    10    1
    30    16    17    1
@<TRIPOS>MOLECULE
MolPort-045-956-744 822752156 CSSS00160217614 MCULE-1807625006 PubChem-131896646 ZINC000822752156
 29 30 0 0 0
SMALL
GASTEIGER

@<TRIPOS>ATOM
      1 C          13.5162   41.4886    7.3736 C.ar    1  UNL1        0.0848
      2 C          12.9459   40.2343    7.6119 C.ar    1  UNL1        0.0190
      3 C          11.7795   39.8474    6.9509 C.ar    1  UNL1        0.0162
      4 C          11.1527   40.7220    6.0546 C.ar    1  UNL1        0.0537
      5 C          11.7095   41.9818    5.8249 C.ar    1  UNL1        0.0528
      6 C          12.8798   42.3864    6.4893 C.ar    1  UNL1        0.1533
      7 C          15.5728   40.9154    8.7565 C.2     1  UNL1        0.2262
      8 O          15.1871   39.7443    9.0191 O.2     1  UNL1       -0.2748
      9 N          14.7067   41.8393    8.0907 N.am    1  UNL1       -0.2815
     10 H          14.9479   42.7931    8.1281 H       1  UNL1        0.1549
     11 C          16.9240   41.3677    9.1970 C.3     1  UNL1        0.0854
     12 C          17.5049   43.7532    8.7433 C.3     1  UNL1        0.0005
     13 C          17.5290   42.3386    8.1948 C.3     1  UNL1        0.0096
     14 C           8.7380   39.9007    5.9051 C.2     1  UNL1        0.2518
     15 O           8.0541   39.0470    5.2807 O.2     1  UNL1       -0.2697
     16 N           9.9779   40.3373    5.3300 N.am    1  UNL1       -0.2802
     17 H          10.0259   40.3761    4.3475 H       1  UNL1        0.1552
     18 C           8.2125   40.4784    7.1638 C.ar    1  UNL1        0.0842
     19 C           6.8281   40.5559    7.4124 C.ar    1  UNL1        0.1804
     20 C           6.3446   41.1277    8.6000 C.ar    1  UNL1        0.1933
     21 C           7.2641   41.6364    9.5443 C.ar    1  UNL1        0.1761
     22 C           8.6345   41.5685    9.2905 C.ar    1  UNL1        0.0331
     23 C           9.1047   40.9977    8.1094 C.ar    1  UNL1        0.0093
     24 F           5.9407   40.0564    6.5137 F       1  UNL1       -0.2007
     25 F           6.8545   42.1993   10.7073 F       1  UNL1       -0.2009
     26 C           4.2978   40.7713    9.9874 C.3     1  UNL1        0.2527
     27 O           4.9548   41.1646    8.7910 O.3     1  UNL1       -0.4669
     28 C          14.4623   43.9592    5.4111 C.3     1  UNL1        0.2525
     29 O          13.3952   43.6746    6.3054 O.3     1  UNL1       -0.4701
@<TRIPOS>BOND
     1    12    13    1
     2    13    11    1
     3    11     7    1
     4     7     9   am
     5     2     3   ar
     6     4    16    1
     7     4     5   ar
     8    14    18    1
     9    19    24    1
    10    19    20   ar
    11    20    27    1
    12    26    27    1
    13    21    25    1
    14    21    22   ar
    15    23    18   ar
    16     6    29    1
    17     6     1   ar
    18    28    29    1
    19     9     1    1
    20    16    14   am
    21     7     8    2
    22     1     2   ar
    23     3     4   ar
    24    14    15    2
    25    18    19   ar
    26    20    21   ar
    27    22    23   ar
    28     5     6   ar
    29     9    10    1
    30    16    17    1
@<TRIPOS>MOLECULE
MolPort-045-956-744 822752156 CSSS00160217614 MCULE-1807625006 PubChem-131896646 ZINC000822752156
 29 30 0 0 0
SMALL
GASTEIGER

@<TRIPOS>ATOM
      1 C           9.2244   40.9354    9.3051 C.ar    1  UNL1        0.0848
      2 C           9.9155   40.2359    8.3109 C.ar    1  UNL1        0.0190
      3 C          11.2502   39.8730    8.4952 C.ar    1  UNL1        0.0162
      4 C          11.9215   40.2251    9.6727 C.ar    1  UNL1        0.0537
      5 C          11.2405   40.9373   10.6621 C.ar    1  UNL1        0.0528
      6 C           9.8984   41.3150   10.4860 C.ar    1  UNL1        0.1533
      7 C           7.4179   42.5494    8.5292 C.2     1  UNL1        0.2262
      8 O           8.1818   43.5521    8.5254 O.2     1  UNL1       -0.2748
      9 N           7.8593   41.2948    9.0568 N.am    1  UNL1       -0.2815
     10 H           7.1696   40.6242    9.2662 H       1  UNL1        0.1549
     11 C           6.0167   42.6823    8.0357 C.3     1  UNL1        0.0854
     12 C           4.3889   44.5667    7.8536 C.3     1  UNL1        0.0005
     13 C           5.7682   44.0692    7.4631 C.3     1  UNL1        0.0096
     14 C          14.3721   39.9836    8.9918 C.2     1  UNL1        0.2518
     15 O          15.2865   39.1174    8.9980 O.2     1  UNL1       -0.2697
     16 N          13.2787   39.8307    9.9081 N.am    1  UNL1       -0.2802
     17 H          13.4794   39.4168   10.7785 H       1  UNL1        0.1552
     18 C          14.4880   41.1615    8.1010 C.ar    1  UNL1        0.0842
     19 C          15.6145   42.0062    8.1464 C.ar    1  UNL1        0.1804
     20 C          15.6992   43.1323    7.3123 C.ar    1  UNL1        0.1933
     21 C          14.6340   43.4177    6.4291 C.ar    1  UNL1        0.1761
     22 C          13.5145   42.5856    6.3941 C.ar    1  UNL1        0.0331
     23 C          13.4404   41.4692    7.2249 C.ar    1  UNL1        0.0093
     24 F          16.6467   41.7286    8.9843 F       1  UNL1       -0.2007
     25 F          14.6615   44.4909    5.6016 F       1  UNL1       -0.2009
     26 C          17.7244   43.9571    8.5206 C.3     1  UNL1        0.2527
     27 O          16.8528   43.9268    7.3993 O.3     1  UNL1       -0.4669
     28 C           8.4436   41.5185   12.4818 C.3     1  UNL1        0.2525
     29 O           9.2419   42.0861   11.4521 O.3     1  UNL1       -0.4701
@<TRIPOS>BOND
     1    12    13    1
     2    13    11    1
     3    11     7    1
     4     7     9   am
     5     2     3   ar
     6     4    16    1
     7     4     5   ar
     8    14    18    1
     9    19    24    1
    10    19    20   ar
    11    20    27    1
    12    26    27    1
    13    21    25    1
    14    21    22   ar
    15    23    18   ar
    16     6    29    1
    17     6     1   ar
    18    28    29    1
    19     9     1    1
    20    16    14   am
    21     7     8    2
    22     1     2   ar
    23     3     4   ar
    24    14    15    2
    25    18    19   ar
    26    20    21   ar
    27    22    23   ar
    28     5     6   ar
    29     9    10    1
    30    16    17    1
@<TRIPOS>MOLECULE
MolPort-045-956-744 822752156 CSSS00160217614 MCULE-1807625006 PubChem-131896646 ZINC000822752156
 29 30 0 0 0
SMALL
GASTEIGER

@<TRIPOS>ATOM
      1 C          11.9065   41.8931    6.9950 C.ar    1  UNL1        0.0848
      2 C          12.1971   42.2630    8.3118 C.ar    1  UNL1        0.0190
      3 C          11.3642   41.8700    9.3601 C.ar    1  UNL1        0.0162
      4 C          10.2124   41.1163    9.1022 C.ar    1  UNL1        0.0537
      5 C           9.9093   40.7575    7.7872 C.ar    1  UNL1        0.0528
      6 C          10.7358   41.1529    6.7217 C.ar    1  UNL1        0.1533
      7 C          13.7652   43.3737    6.0875 C.2     1  UNL1        0.2262
      8 O          13.7155   44.1879    7.0486 O.2     1  UNL1       -0.2748
      9 N          12.7887   42.3362    5.9559 N.am    1  UNL1       -0.2815
     10 H          12.7170   41.8907    5.0809 H       1  UNL1        0.1549
     11 C          14.8152   43.5263    5.0393 C.3     1  UNL1        0.0854
     12 C          17.1656   43.8859    5.8008 C.3     1  UNL1        0.0005
     13 C          15.8520   44.5601    5.4508 C.3     1  UNL1        0.0096
     14 C           8.3132   41.4204   10.7839 C.2     1  UNL1        0.2518
     15 O           8.0760   41.2263   12.0055 O.2     1  UNL1       -0.2697
     16 N           9.3608   40.6629   10.1616 N.am    1  UNL1       -0.2802
     17 H           9.5080   39.7476   10.4929 H       1  UNL1        0.1552
     18 C           7.4641   42.3600   10.0155 C.ar    1  UNL1        0.0842
     19 C           6.0658   42.2007    9.9536 C.ar    1  UNL1        0.1804
     20 C           5.2767   43.0857    9.2018 C.ar    1  UNL1        0.1933
     21 C           5.9024   44.1375    8.4960 C.ar    1  UNL1        0.1761
     22 C           7.2887   44.2864    8.5500 C.ar    1  UNL1        0.0331
     23 C           8.0633   43.4037    9.3003 C.ar    1  UNL1        0.0093
     24 F           5.4584   41.1991   10.6409 F       1  UNL1       -0.2007
     25 F           5.1910   45.0212    7.7542 F       1  UNL1       -0.2009
     26 C           3.2683   41.6003    9.1660 C.3     1  UNL1        0.2527
     27 O           3.8889   42.8778    9.1902 O.3     1  UNL1       -0.4669
     28 C          10.5467   39.5498    4.8414 C.3     1  UNL1        0.2525
     29 O          10.3909   40.8473    5.4001 O.3     1  UNL1       -0.4701
@<TRIPOS>BOND
     1    12    13    1
     2    13    11    1
     3    11     7    1
     4     7     9   am
     5     2     3   ar
     6     4    16    1
     7     4     5   ar
     8    14    18    1
     9    19    24    1
    10    19    20   ar
    11    20    27    1
    12    26    27    1
    13    21    25    1
    14    21    22   ar
    15    23    18   ar
    16     6    29    1
    17     6     1   ar
    18    28    29    1
    19     9     1    1
    20    16    14   am
    21     7     8    2
    22     1     2   ar
    23     3     4   ar
    24    14    15    2
    25    18    19   ar
    26    20    21   ar
    27    22    23   ar
    28     5     6   ar
    29     9    10    1
    30    16    17    1
@<TRIPOS>MOLECULE
MolPort-045-956-744 822752156 CSSS00160217614 MCULE-1807625006 PubChem-131896646 ZINC000822752156
 29 30 0 0 0
SMALL
GASTEIGER

@<TRIPOS>ATOM
      1 C           5.2732   42.3117    9.7324 C.ar    1  UNL1        0.0848
      2 C           6.0513   41.1648    9.5470 C.ar    1  UNL1        0.0190
      3 C           6.8261   41.0107    8.3967 C.ar    1  UNL1        0.0162
      4 C           6.8166   41.9961    7.4018 C.ar    1  UNL1        0.0537
      5 C           6.0292   43.1362    7.5749 C.ar    1  UNL1        0.0528
      6 C           5.2389   43.3004    8.7253 C.ar    1  UNL1        0.1533
      7 C           3.1499   41.9224   11.0780 C.2     1  UNL1        0.2262
      8 O           2.4506   41.6329   10.0699 O.2     1  UNL1       -0.2748
      9 N           4.4860   42.4112   10.9261 N.am    1  UNL1       -0.2815
     10 H           4.8980   42.8514   11.7044 H       1  UNL1        0.1549
     11 C           2.5621   41.8144   12.4445 C.3     1  UNL1        0.0854
     12 C           0.5487   42.3104   13.8352 C.3     1  UNL1        0.0005
     13 C           1.3048   42.6612   12.5671 C.3     1  UNL1        0.0096
     14 C           9.0360   41.5848    6.2048 C.2     1  UNL1        0.2518
     15 O           9.7441   42.0976    5.2981 O.2     1  UNL1       -0.2697
     16 N           7.6333   41.8854    6.2296 N.am    1  UNL1       -0.2802
     17 H           7.1913   42.0287    5.3616 H       1  UNL1        0.1552
     18 C           9.6506   40.6375    7.1635 C.ar    1  UNL1        0.0842
     19 C          10.5168   41.0837    8.1809 C.ar    1  UNL1        0.1804
     20 C          11.1104   40.1711    9.0674 C.ar    1  UNL1        0.1933
     21 C          10.8372   38.7925    8.9227 C.ar    1  UNL1        0.1761
     22 C           9.9877   38.3522    7.9072 C.ar    1  UNL1        0.0331
     23 C           9.4021   39.2660    7.0331 C.ar    1  UNL1        0.0093
     24 F          10.7721   42.4090    8.3321 F       1  UNL1       -0.2007
     25 F          11.3823   37.8667    9.7492 F       1  UNL1       -0.2009
     26 C          12.7768   39.8852   10.9066 C.3     1  UNL1        0.2527
     27 O          11.9551   40.6816   10.0650 O.3     1  UNL1       -0.4669
     28 C           3.7565   45.0351    7.7586 C.3     1  UNL1        0.2525
     29 O           4.4011   44.4131    8.8620 O.3     1  UNL1       -0.4701
@<TRIPOS>BOND
     1    12    13    1
     2    13    11    1
     3    11     7    1
     4     7     9   am
     5     2     3   ar
     6     4    16    1
     7     4     5   ar
     8    14    18    1
     9    19    24    1
    10    19    20   ar
    11    20    27    1
    12    26    27    1
    13    21    25    1
    14    21    22   ar
    15    23    18   ar
    16     6    29    1
    17     6     1   ar
    18    28    29    1
    19     9     1    1
    20    16    14   am
    21     7     8    2
    22     1     2   ar
    23     3     4   ar
    24    14    15    2
    25    18    19   ar
    26    20    21   ar
    27    22    23   ar
    28     5     6   ar
    29     9    10    1
    30    16    17    1
@<TRIPOS>MOLECULE
MolPort-045-956-744 822752156 CSSS00160217614 MCULE-1807625006 PubChem-131896646 ZINC000822752156
 29 30 0 0 0
SMALL
GASTEIGER

@<TRIPOS>ATOM
      1 C          10.5595   41.4044    9.6396 C.ar    1  UNL1        0.0848
      2 C          10.2480   42.5093   10.4380 C.ar    1  UNL1        0.0190
      3 C           9.2474   43.4031   10.0544 C.ar    1  UNL1        0.0162
      4 C           8.5564   43.2152    8.8510 C.ar    1  UNL1        0.0537
      5 C           8.8743   42.1220    8.0424 C.ar    1  UNL1        0.0528
      6 C           9.8846   41.2185    8.4137 C.ar    1  UNL1        0.1533
      7 C          12.9906   40.6632    9.7433 C.2     1  UNL1        0.2262
      8 O          13.3552   41.4001    8.7876 O.2     1  UNL1       -0.2748
      9 N          11.6056   40.5267   10.0752 N.am    1  UNL1       -0.2815
     10 H          11.3505   39.7685   10.6491 H       1  UNL1        0.1549
     11 C          14.0049   39.8747   10.5008 C.3     1  UNL1        0.0854
     12 C          15.9126   38.3618    9.9478 C.3     1  UNL1        0.0005
     13 C          15.2887   39.7227    9.6997 C.3     1  UNL1        0.0096
     14 C           6.1071   43.7460    8.3539 C.2     1  UNL1        0.2518
     15 O           5.4097   44.3043    7.4660 O.2     1  UNL1       -0.2697
     16 N           7.4961   44.0922    8.4509 N.am    1  UNL1       -0.2802
     17 H           7.7435   45.0171    8.2215 H       1  UNL1        0.1552
     18 C           5.4639   42.8148    9.3096 C.ar    1  UNL1        0.0842
     19 C           4.1172   42.9721    9.6919 C.ar    1  UNL1        0.1804
     20 C           3.5282   42.0954   10.6169 C.ar    1  UNL1        0.1933
     21 C           4.3057   41.0541   11.1712 C.ar    1  UNL1        0.1761
     22 C           5.6425   40.9074   10.7992 C.ar    1  UNL1        0.0331
     23 C           6.2177   41.7818    9.8792 C.ar    1  UNL1        0.0093
     24 F           3.3621   43.9635    9.1519 F       1  UNL1       -0.2007
     25 F           3.7899   40.1788   12.0684 F       1  UNL1       -0.2009
     26 C           1.6856   42.4087   12.2746 C.3     1  UNL1        0.2527
     27 O           2.1798   42.3006   10.9472 O.3     1  UNL1       -0.4669
     28 C           9.7234   38.8486    7.7076 C.3     1  UNL1        0.2525
     29 O          10.2441   40.1635    7.5672 O.3     1  UNL1       -0.4701
@<TRIPOS>BOND
     1    12    13    1
     2    13    11    1
     3    11     7    1
     4     7     9   am
     5     2     3   ar
     6     4    16    1
     7     4     5   ar
     8    14    18    1
     9    19    24    1
    10    19    20   ar
    11    20    27    1
    12    26    27    1
    13    21    25    1
    14    21    22   ar
    15    23    18   ar
    16     6    29    1
    17     6     1   ar
    18    28    29    1
    19     9     1    1
    20    16    14   am
    21     7     8    2
    22     1     2   ar
    23     3     4   ar
    24    14    15    2
    25    18    19   ar
    26    20    21   ar
    27    22    23   ar
    28     5     6   ar
    29     9    10    1
    30    16    17    1
@<TRIPOS>MOLECULE
MolPort-045-956-744 822752156 CSSS00160217614 MCULE-1807625006 PubChem-131896646 ZINC000822752156
 29 30 0 0 0
SMALL
GASTEIGER

@<TRIPOS>ATOM
      1 C          13.8700   41.5351    7.6036 C.ar    1  UNL1        0.0848
      2 C          13.5488   40.3180    8.2125 C.ar    1  UNL1        0.0190
      3 C          12.4367   39.5864    7.7941 C.ar    1  UNL1        0.0162
      4 C          11.6146   40.0746    6.7710 C.ar    1  UNL1        0.0537
      5 C          11.9221   41.2971    6.1702 C.ar    1  UNL1        0.0528
      6 C          13.0349   42.0471    6.5870 C.ar    1  UNL1        0.1533
      7 C          16.1992   41.6533    8.6191 C.2     1  UNL1        0.2262
      8 O          16.2014   40.4490    8.9919 O.2     1  UNL1       -0.2748
      9 N          15.0154   42.2514    8.0828 N.am    1  UNL1       -0.2815
     10 H          14.9850   43.2345    8.0393 H       1  UNL1        0.1549
     11 C          17.4242   42.4860    8.7937 C.3     1  UNL1        0.0854
     12 C          17.8236   43.9305    6.7968 C.3     1  UNL1        0.0005
     13 C          17.2339   43.8705    8.1937 C.3     1  UNL1        0.0096
     14 C           9.1355   39.4574    6.7453 C.2     1  UNL1        0.2518
     15 O           8.4040   38.4321    6.7559 O.2     1  UNL1       -0.2697
     16 N          10.4904   39.3265    6.2917 N.am    1  UNL1       -0.2802
     17 H          10.6635   38.6617    5.5866 H       1  UNL1        0.1552
     18 C           8.5606   40.7685    7.1259 C.ar    1  UNL1        0.0842
     19 C           8.7367   41.2978    8.4195 C.ar    1  UNL1        0.1804
     20 C           8.1658   42.5309    8.7725 C.ar    1  UNL1        0.1933
     21 C           7.4006   43.2353    7.8163 C.ar    1  UNL1        0.1761
     22 C           7.2184   42.7033    6.5392 C.ar    1  UNL1        0.0331
     23 C           7.7905   41.4793    6.1978 C.ar    1  UNL1        0.0093
     24 F           9.4824   40.6308    9.3379 F       1  UNL1       -0.2007
     25 F           6.8260   44.4293    8.1015 F       1  UNL1       -0.2009
     26 C           9.3949   43.9455   10.4247 C.3     1  UNL1        0.2527
     27 O           8.3878   43.0071   10.0738 O.3     1  UNL1       -0.4669
     28 C          14.4574   43.5730    5.2494 C.3     1  UNL1        0.2525
     29 O          13.2992   43.3023    6.0272 O.3     1  UNL1       -0.4701
@<TRIPOS>BOND
     1    12    13    1
     2    13    11    1
     3    11     7    1
     4     7     9   am
     5     2     3   ar
     6     4    16    1
     7     4     5   ar
     8    14    18    1
     9    19    24    1
    10    19    20   ar
    11    20    27    1
    12    26    27    1
    13    21    25    1
    14    21    22   ar
    15    23    18   ar
    16     6    29    1
    17     6     1   ar
    18    28    29    1
    19     9     1    1
    20    16    14   am
    21     7     8    2
    22     1     2   ar
    23     3     4   ar
    24    14    15    2
    25    18    19   ar
    26    20    21   ar
    27    22    23   ar
    28     5     6   ar
    29     9    10    1
    30    16    17    1
@<TRIPOS>MOLECULE
MolPort-045-956-744 822752156 CSSS00160217614 MCULE-1807625006 PubChem-131896646 ZINC000822752156
 29 30 0 0 0
SMALL
GASTEIGER

@<TRIPOS>ATOM
      1 C          10.8752   40.6269    8.4311 C.ar    1  UNL1        0.0848
      2 C          12.0844   40.3890    7.7703 C.ar    1  UNL1        0.0190
      3 C          13.2551   40.1571    8.4935 C.ar    1  UNL1        0.0162
      4 C          13.2366   40.1813    9.8935 C.ar    1  UNL1        0.0537
      5 C          12.0348   40.4338   10.5581 C.ar    1  UNL1        0.0528
      6 C          10.8503   40.6759    9.8417 C.ar    1  UNL1        0.1533
      7 C           8.7255   39.8928    7.2863 C.2     1  UNL1        0.2262
      8 O           8.9750   38.6620    7.3963 O.2     1  UNL1       -0.2748
      9 N           9.7066   40.8729    7.6385 N.am    1  UNL1       -0.2815
     10 H           9.5677   41.7905    7.3099 H       1  UNL1        0.1549
     11 C           7.4169   40.3373    6.7254 C.3     1  UNL1        0.0854
     12 C           6.9653   42.7626    6.3411 C.3     1  UNL1        0.0005
     13 C           6.9634   41.6412    7.3634 C.3     1  UNL1        0.0096
     14 C          14.7232   38.6656   11.3149 C.2     1  UNL1        0.2518
     15 O          15.3714   38.6999   12.3943 O.2     1  UNL1       -0.2697
     16 N          14.4134   39.9058   10.6633 N.am    1  UNL1       -0.2802
     17 H          15.0694   40.6343   10.7534 H       1  UNL1        0.1552
     18 C          14.3684   37.3574   10.7174 C.ar    1  UNL1        0.0842
     19 C          15.1743   36.7615    9.7275 C.ar    1  UNL1        0.1804
     20 C          14.8123   35.5323    9.1536 C.ar    1  UNL1        0.1933
     21 C          13.6208   34.8999    9.5735 C.ar    1  UNL1        0.1761
     22 C          12.8187   35.4978   10.5462 C.ar    1  UNL1        0.0331
     23 C          13.1873   36.7173   11.1109 C.ar    1  UNL1        0.0093
     24 F          16.3273   37.3592    9.3301 F       1  UNL1       -0.2007
     25 F          13.2220   33.7130    9.0542 F       1  UNL1       -0.2009
     26 C          16.6362   33.9837    8.4348 C.3     1  UNL1        0.2527
     27 O          15.6640   34.9876    8.1803 O.3     1  UNL1       -0.4669
     28 C           9.3122   42.3238   10.8712 C.3     1  UNL1        0.2525
     29 O           9.6638   40.9944   10.5123 O.3     1  UNL1       -0.4701
@<TRIPOS>BOND
     1    12    13    1
     2    13    11    1
     3    11     7    1
     4     7     9   am
     5     2     3   ar
     6     4    16    1
     7     4     5   ar
     8    14    18    1
     9    19    24    1
    10    19    20   ar
    11    20    27    1
    12    26    27    1
    13    21    25    1
    14    21    22   ar
    15    23    18   ar
    16     6    29    1
    17     6     1   ar
    18    28    29    1
    19     9     1    1
    20    16    14   am
    21     7     8    2
    22     1     2   ar
    23     3     4   ar
    24    14    15    2
    25    18    19   ar
    26    20    21   ar
    27    22    23   ar
    28     5     6   ar
    29     9    10    1
    30    16    17    1
@<TRIPOS>MOLECULE
MolPort-045-956-744 822752156 CSSS00160217614 MCULE-1807625006 PubChem-131896646 ZINC000822752156
 29 30 0 0 0
SMALL
GASTEIGER

@<TRIPOS>ATOM
      1 C           9.2880   40.9174    9.1377 C.ar    1  UNL1        0.0848
      2 C           9.9296   41.5168   10.2260 C.ar    1  UNL1        0.0190
      3 C          11.2667   41.2328   10.5066 C.ar    1  UNL1        0.0162
      4 C          11.9774   40.3248    9.7119 C.ar    1  UNL1        0.0537
      5 C          11.3368   39.7116    8.6333 C.ar    1  UNL1        0.0528
      6 C           9.9888   39.9835    8.3441 C.ar    1  UNL1        0.1533
      7 C           6.9837   41.6777    9.9009 C.2     1  UNL1        0.2262
      8 O           7.2372   41.5322   11.1272 O.2     1  UNL1       -0.2748
      9 N           7.9099   41.2346    8.9044 N.am    1  UNL1       -0.2815
     10 H           7.5733   41.1400    7.9841 H       1  UNL1        0.1549
     11 C           5.6783   42.2617    9.4773 C.3     1  UNL1        0.0854
     12 C           3.2428   41.7123    9.4848 C.3     1  UNL1        0.0005
     13 C           4.6413   41.1732    9.2478 C.3     1  UNL1        0.0096
     14 C          14.4306   40.2131    9.0071 C.2     1  UNL1        0.2518
     15 O          15.4052   39.4166    9.0553 O.2     1  UNL1       -0.2697
     16 N          13.3624   40.0448    9.9500 N.am    1  UNL1       -0.2802
     17 H          13.6030   39.7059   10.8424 H       1  UNL1        0.1552
     18 C          14.4504   41.3335    8.0383 C.ar    1  UNL1        0.0842
     19 C          15.5328   42.2333    7.9810 C.ar    1  UNL1        0.1804
     20 C          15.5263   43.3044    7.0733 C.ar    1  UNL1        0.1933
     21 C          14.4138   43.4781    6.2200 C.ar    1  UNL1        0.1761
     22 C          13.3381   42.5919    6.2866 C.ar    1  UNL1        0.0331
     23 C          13.3545   41.5308    7.1899 C.ar    1  UNL1        0.0093
     24 F          16.6103   42.0627    8.7899 F       1  UNL1       -0.2007
     25 F          14.3531   44.4941    5.3247 F       1  UNL1       -0.2009
     26 C          17.7140   44.0625    6.1348 C.3     1  UNL1        0.2527
     27 O          16.6400   44.1582    7.0595 O.3     1  UNL1       -0.4669
     28 C           8.9350   37.9541    7.3891 C.3     1  UNL1        0.2525
     29 O           9.3339   39.3154    7.3031 O.3     1  UNL1       -0.4701
@<TRIPOS>BOND
     1    12    13    1
     2    13    11    1
     3    11     7    1
     4     7     9   am
     5     2     3   ar
     6     4    16    1
     7     4     5   ar
     8    14    18    1
     9    19    24    1
    10    19    20   ar
    11    20    27    1
    12    26    27    1
    13    21    25    1
    14    21    22   ar
    15    23    18   ar
    16     6    29    1
    17     6     1   ar
    18    28    29    1
    19     9     1    1
    20    16    14   am
    21     7     8    2
    22     1     2   ar
    23     3     4   ar
    24    14    15    2
    25    18    19   ar
    26    20    21   ar
    27    22    23   ar
    28     5     6   ar
    29     9    10    1
    30    16    17    1
