@<TRIPOS>MOLECULE
MolPort-035-706-970 CSSS03437789225 MCULE-7258694995 PubChem-91938295
 29 31 0 0 0
SMALL
GASTEIGER

@<TRIPOS>ATOM
      1 C          14.6764   38.7617   10.4945 C.3     1  UNL1        0.2880
      2 C          15.2451   38.7330   11.9060 C.3     1  UNL1        0.0650
      3 C          12.5900   40.0410    9.9113 C.ar    1  UNL1        0.1542
      4 C          11.2007   40.1458   10.0277 C.ar    1  UNL1        0.0529
      5 C          10.5042   41.1475    9.3421 C.ar    1  UNL1        0.0534
      6 C          11.2159   42.0504    8.5366 C.ar    1  UNL1        0.0161
      7 C          12.6051   41.9507    8.4207 C.ar    1  UNL1        0.0190
      8 C          13.2901   40.9460    9.1077 C.ar    1  UNL1        0.0850
      9 C          15.4151   39.8119    9.6891 C.2     1  UNL1        0.2732
     10 O          13.2697   39.0333   10.6041 O.3     1  UNL1       -0.4618
     11 O          16.6715   39.7671    9.5946 O.2     1  UNL1       -0.2704
     12 N          14.7054   40.8456    9.0067 N.am    1  UNL1       -0.2783
     13 H          15.2014   41.4968    8.4598 H       1  UNL1        0.1551
     14 C           8.1402   41.6835    8.5087 C.2     1  UNL1        0.2261
     15 O           8.5180   42.0723    7.3718 O.2     1  UNL1       -0.2748
     16 N           9.0794   41.2193    9.4872 N.am    1  UNL1       -0.2838
     17 H           8.7077   40.9187   10.3479 H       1  UNL1        0.1549
     18 C           6.6883   41.6744    8.8313 C.3     1  UNL1        0.0854
     19 C           6.4924   41.4095   10.3136 C.3     1  UNL1        0.0096
     20 C           5.0551   41.0088   10.5935 C.3     1  UNL1        0.0005
     21 C           4.3523   42.0655   11.4191 C.3     1  UNL1        0.0000
     22 C           2.9120   42.0191   10.9696 C.3     1  UNL1        0.0000
     23 C           2.9566   41.6189    9.5099 C.3     1  UNL1        0.0000
     24 C           4.2817   40.9093    9.2928 C.3     1  UNL1        0.0000
     25 C          14.8603   37.4201    9.8387 C.2     1  UNL1        0.3623
     26 O          15.4368   37.3337    8.7182 O.2     1  UNL1       -0.2457
     27 O          14.3324   36.2791   10.4479 O.3     1  UNL1       -0.4458
     28 C          11.9943   35.7776   10.6024 C.3     1  UNL1        0.0513
     29 C          13.2862   35.5258    9.8536 C.3     1  UNL1        0.2087
@<TRIPOS>BOND
     1    28    29    1
     2    29    27    1
     3    25    27    1
     4     1    25    1
     5     1     2    1
     6     1    10    1
     7     1     9    1
     8     3    10    1
     9     4     5   ar
    10     5    16    1
    11    18    14    1
    12    18    19    1
    13    19    20    1
    14    20    21    1
    15    21    22    1
    16    22    23    1
    17    23    24    1
    18    24    20    1
    19     6     7   ar
    20     8    12    1
    21     8     3   ar
    22    16    14   am
    23    12     9   am
    24    25    26    2
    25     3     4   ar
    26     5     6   ar
    27    14    15    2
    28     7     8   ar
    29     9    11    2
    30    16    17    1
    31    12    13    1
@<TRIPOS>MOLECULE
MolPort-035-706-970 CSSS03437789225 MCULE-7258694995 PubChem-91938295
 29 31 0 0 0
SMALL
GASTEIGER

@<TRIPOS>ATOM
      1 C           3.9283   40.9190   10.8699 C.3     1  UNL1        0.2880
      2 C           3.4813   39.5707   11.4169 C.3     1  UNL1        0.0650
      3 C           6.2470   41.3041    9.9727 C.ar    1  UNL1        0.1542
      4 C           7.6117   41.4302   10.2491 C.ar    1  UNL1        0.0529
      5 C           8.5161   41.7498    9.2300 C.ar    1  UNL1        0.0534
      6 C           8.0393   41.9402    7.9236 C.ar    1  UNL1        0.0161
      7 C           6.6761   41.8115    7.6429 C.ar    1  UNL1        0.0190
      8 C           5.7820   41.4942    8.6678 C.ar    1  UNL1        0.0850
      9 C           3.4684   41.0416    9.4309 C.2     1  UNL1        0.2732
     10 O           5.3574   40.9840   11.0039 O.3     1  UNL1       -0.4618
     11 O           2.2496   40.8969    9.1430 O.2     1  UNL1       -0.2704
     12 N           4.3949   41.3474    8.3889 N.am    1  UNL1       -0.2783
     13 H           4.0700   41.4581    7.4661 H       1  UNL1        0.1551
     14 C          10.9158   40.8649    9.3992 C.2     1  UNL1        0.2261
     15 O          10.6419   39.7333    8.9187 O.2     1  UNL1       -0.2748
     16 N           9.9072   41.8715    9.5560 N.am    1  UNL1       -0.2838
     17 H          10.1999   42.7357    9.9258 H       1  UNL1        0.1549
     18 C          12.3195   41.1750    9.7809 C.3     1  UNL1        0.0854
     19 C          13.2048   39.9722    9.5065 C.3     1  UNL1        0.0096
     20 C          13.6941   39.3676   10.8103 C.3     1  UNL1        0.0005
     21 C          13.2601   37.9221   10.9301 C.3     1  UNL1        0.0000
     22 C          14.3628   37.2459   11.7084 C.3     1  UNL1        0.0000
     23 C          15.6321   37.9818   11.3337 C.3     1  UNL1        0.0000
     24 C          15.2102   39.3545   10.8391 C.3     1  UNL1        0.0000
     25 C           3.3157   42.0303   11.6781 C.2     1  UNL1        0.3623
     26 O           3.6903   43.2240   11.5044 O.2     1  UNL1       -0.2457
     27 O           2.3763   41.7247   12.6661 O.3     1  UNL1       -0.4458
     28 C           0.5803   42.1740   14.1873 C.3     1  UNL1        0.0513
     29 C           1.1908   42.4864   12.8372 C.3     1  UNL1        0.2087
@<TRIPOS>BOND
     1    28    29    1
     2    29    27    1
     3    25    27    1
     4     1    25    1
     5     1     2    1
     6     1    10    1
     7     1     9    1
     8     3    10    1
     9     4     5   ar
    10     5    16    1
    11    18    14    1
    12    18    19    1
    13    19    20    1
    14    20    21    1
    15    21    22    1
    16    22    23    1
    17    23    24    1
    18    24    20    1
    19     6     7   ar
    20     8    12    1
    21     8     3   ar
    22    16    14   am
    23    12     9   am
    24    25    26    2
    25     3     4   ar
    26     5     6   ar
    27    14    15    2
    28     7     8   ar
    29     9    11    2
    30    16    17    1
    31    12    13    1
@<TRIPOS>MOLECULE
MolPort-035-706-970 CSSS03437789225 MCULE-7258694995 PubChem-91938295
 29 31 0 0 0
SMALL
GASTEIGER

@<TRIPOS>ATOM
      1 C           4.0425   40.9254   10.7630 C.3     1  UNL1        0.2880
      2 C           3.6085   39.5824   11.3330 C.3     1  UNL1        0.0650
      3 C           6.3210   41.2871    9.7594 C.ar    1  UNL1        0.1542
      4 C           7.6980   41.4009    9.9725 C.ar    1  UNL1        0.0529
      5 C           8.5575   41.7101    8.9122 C.ar    1  UNL1        0.0534
      6 C           8.0229   41.9027    7.6287 C.ar    1  UNL1        0.0161
      7 C           6.6472   41.7864    7.4112 C.ar    1  UNL1        0.0190
      8 C           5.7982   41.4793    8.4769 C.ar    1  UNL1        0.0850
      9 C           3.5180   41.0498    9.3464 C.2     1  UNL1        0.2732
     10 O           5.4768   40.9772   10.8311 O.3     1  UNL1       -0.4618
     11 O           2.2859   40.9160    9.1152 O.2     1  UNL1       -0.2704
     12 N           4.3984   41.3451    8.2623 N.am    1  UNL1       -0.2783
     13 H           4.0325   41.4571    7.3552 H       1  UNL1        0.1551
     14 C          10.7647   40.9149    9.9449 C.2     1  UNL1        0.2261
     15 O          10.2666   39.8841   10.4701 O.2     1  UNL1       -0.2748
     16 N           9.9632   41.8193    9.1737 N.am    1  UNL1       -0.2838
     17 H          10.4258   42.5956    8.7831 H       1  UNL1        0.1549
     18 C          12.2195   41.1822   10.0998 C.3     1  UNL1        0.0854
     19 C          13.0141   39.9516    9.6995 C.3     1  UNL1        0.0096
     20 C          13.9077   40.2625    8.5123 C.3     1  UNL1        0.0005
     21 C          13.2759   41.3123    7.6229 C.3     1  UNL1        0.0000
     22 C          14.4366   42.0859    7.0457 C.3     1  UNL1        0.0000
     23 C          15.5127   42.0549    8.1106 C.3     1  UNL1        0.0000
     24 C          15.2199   40.8527    8.9913 C.3     1  UNL1        0.0000
     25 C           3.4780   42.0439   11.5961 C.2     1  UNL1        0.3623
     26 O           3.9003   43.2247   11.4453 O.2     1  UNL1       -0.2457
     27 O           2.5301   41.7564   12.5813 O.3     1  UNL1       -0.4458
     28 C           0.7517   42.3556   14.0714 C.3     1  UNL1        0.0513
     29 C           1.2947   42.4511   12.6609 C.3     1  UNL1        0.2087
@<TRIPOS>BOND
     1    28    29    1
     2    29    27    1
     3    25    27    1
     4     1    25    1
     5     1     2    1
     6     1    10    1
     7     1     9    1
     8     3    10    1
     9     4     5   ar
    10     5    16    1
    11    18    14    1
    12    18    19    1
    13    19    20    1
    14    20    21    1
    15    21    22    1
    16    22    23    1
    17    23    24    1
    18    24    20    1
    19     6     7   ar
    20     8    12    1
    21     8     3   ar
    22    16    14   am
    23    12     9   am
    24    25    26    2
    25     3     4   ar
    26     5     6   ar
    27    14    15    2
    28     7     8   ar
    29     9    11    2
    30    16    17    1
    31    12    13    1
@<TRIPOS>MOLECULE
MolPort-035-706-970 CSSS03437789225 MCULE-7258694995 PubChem-91938295
 29 31 0 0 0
SMALL
GASTEIGER

@<TRIPOS>ATOM
      1 C          15.0853   38.7206   10.7851 C.3     1  UNL1        0.2880
      2 C          15.5995   38.8757   12.2094 C.3     1  UNL1        0.0650
      3 C          13.3507   40.2581    9.8069 C.ar    1  UNL1        0.1542
      4 C          12.0173   40.6784    9.8010 C.ar    1  UNL1        0.0529
      5 C          11.5780   41.6339    8.8777 C.ar    1  UNL1        0.0534
      6 C          12.4919   42.1701    7.9570 C.ar    1  UNL1        0.0161
      7 C          13.8265   41.7549    7.9623 C.ar    1  UNL1        0.0190
      8 C          14.2538   40.7992    8.8868 C.ar    1  UNL1        0.0850
      9 C          16.0584   39.3915    9.8364 C.2     1  UNL1        0.2732
     10 O          13.7722   39.3020   10.7373 O.3     1  UNL1       -0.4618
     11 O          17.2751   39.0614    9.8420 O.2     1  UNL1       -0.2704
     12 N          15.6132   40.3810    8.9087 N.am    1  UNL1       -0.2783
     13 H          16.2548   40.7787    8.2767 H       1  UNL1        0.1551
     14 C           9.6471   43.1475    9.6201 C.2     1  UNL1        0.2261
     15 O          10.3742   43.9103   10.3100 O.2     1  UNL1       -0.2748
     16 N          10.2019   42.0364    8.9040 N.am    1  UNL1       -0.2838
     17 H           9.5731   41.4936    8.3756 H       1  UNL1        0.1549
     18 C           8.1892   43.4238    9.5194 C.3     1  UNL1        0.0854
     19 C           7.4031   42.1746    9.8762 C.3     1  UNL1        0.0096
     20 C           6.1227   42.1057    9.0635 C.3     1  UNL1        0.0005
     21 C           5.0011   41.4944    9.8762 C.3     1  UNL1        0.0000
     22 C           3.7457   42.1710    9.3814 C.3     1  UNL1        0.0000
     23 C           4.1713   43.5669    8.9769 C.3     1  UNL1        0.0000
     24 C           5.6633   43.5045    8.6999 C.3     1  UNL1        0.0000
     25 C          14.9814   37.2617   10.4321 C.2     1  UNL1        0.3623
     26 O          14.6747   36.4137   11.3165 O.2     1  UNL1       -0.2457
     27 O          15.2891   36.8448    9.1347 O.3     1  UNL1       -0.4458
     28 C          15.9575   35.0996    7.6349 C.3     1  UNL1        0.0513
     29 C          14.9366   35.5557    8.6562 C.3     1  UNL1        0.2087
@<TRIPOS>BOND
     1    28    29    1
     2    29    27    1
     3    25    27    1
     4     1    25    1
     5     1     2    1
     6     1    10    1
     7     1     9    1
     8     3    10    1
     9     4     5   ar
    10     5    16    1
    11    18    14    1
    12    18    19    1
    13    19    20    1
    14    20    21    1
    15    21    22    1
    16    22    23    1
    17    23    24    1
    18    24    20    1
    19     6     7   ar
    20     8    12    1
    21     8     3   ar
    22    16    14   am
    23    12     9   am
    24    25    26    2
    25     3     4   ar
    26     5     6   ar
    27    14    15    2
    28     7     8   ar
    29     9    11    2
    30    16    17    1
    31    12    13    1
@<TRIPOS>MOLECULE
MolPort-035-706-970 CSSS03437789225 MCULE-7258694995 PubChem-91938295
 29 31 0 0 0
SMALL
GASTEIGER

@<TRIPOS>ATOM
      1 C           5.1696   41.9180    9.8012 C.3     1  UNL1        0.2880
      2 C           5.0102   41.3723   11.2131 C.3     1  UNL1        0.0650
      3 C           7.2266   41.4882    8.4178 C.ar    1  UNL1        0.1542
      4 C           8.5884   41.7370    8.2222 C.ar    1  UNL1        0.0529
      5 C           9.2532   41.2122    7.1081 C.ar    1  UNL1        0.0534
      6 C           8.5387   40.4293    6.1879 C.ar    1  UNL1        0.0161
      7 C           7.1781   40.1757    6.3820 C.ar    1  UNL1        0.0190
      8 C           6.5238   40.7059    7.4963 C.ar    1  UNL1        0.0850
      9 C           4.4581   40.9927    8.8343 C.2     1  UNL1        0.2732
     10 O           6.5782   42.0208    9.5373 O.3     1  UNL1       -0.4618
     11 O           3.2392   40.7188    9.0034 O.2     1  UNL1       -0.2704
     12 N           5.1425   40.4414    7.7094 N.am    1  UNL1       -0.2783
     13 H           4.6527   39.8713    7.0735 H       1  UNL1        0.1551
     14 C          11.4732   42.2851    7.8093 C.2     1  UNL1        0.2261
     15 O          11.0061   42.8147    8.8523 O.2     1  UNL1       -0.2748
     16 N          10.6500   41.4924    6.9437 N.am    1  UNL1       -0.2838
     17 H          11.0890   41.0997    6.1549 H       1  UNL1        0.1549
     18 C          12.9146   42.4577    7.4862 C.3     1  UNL1        0.0854
     19 C          13.7542   41.5750    8.3927 C.3     1  UNL1        0.0096
     20 C          15.1774   41.4848    7.8721 C.3     1  UNL1        0.0005
     21 C          15.6272   42.8128    7.3008 C.3     1  UNL1        0.0000
     22 C          17.1105   42.8740    7.5746 C.3     1  UNL1        0.0000
     23 C          17.3151   42.1108    8.8663 C.3     1  UNL1        0.0000
     24 C          16.1280   41.1747    9.0123 C.3     1  UNL1        0.0000
     25 C           4.5587   43.2898    9.7083 C.2     1  UNL1        0.3623
     26 O           3.3835   43.4922   10.1244 O.2     1  UNL1       -0.2457
     27 O           5.2770   44.3224    9.1003 O.3     1  UNL1       -0.4458
     28 C           3.7584   45.2264    7.4821 C.3     1  UNL1        0.0513
     29 C           5.1296   44.6304    7.7224 C.3     1  UNL1        0.2087
@<TRIPOS>BOND
     1    28    29    1
     2    29    27    1
     3    25    27    1
     4     1    25    1
     5     1     2    1
     6     1    10    1
     7     1     9    1
     8     3    10    1
     9     4     5   ar
    10     5    16    1
    11    18    14    1
    12    18    19    1
    13    19    20    1
    14    20    21    1
    15    21    22    1
    16    22    23    1
    17    23    24    1
    18    24    20    1
    19     6     7   ar
    20     8    12    1
    21     8     3   ar
    22    16    14   am
    23    12     9   am
    24    25    26    2
    25     3     4   ar
    26     5     6   ar
    27    14    15    2
    28     7     8   ar
    29     9    11    2
    30    16    17    1
    31    12    13    1
@<TRIPOS>MOLECULE
MolPort-035-706-970 CSSS03437789225 MCULE-7258694995 PubChem-91938295
 29 31 0 0 0
SMALL
GASTEIGER

@<TRIPOS>ATOM
      1 C           6.1351   42.0328    9.3070 C.3     1  UNL1        0.2880
      2 C           6.1908   41.6291   10.7736 C.3     1  UNL1        0.0650
      3 C           8.0657   41.6641    7.7366 C.ar    1  UNL1        0.1542
      4 C           9.3622   42.0251    7.3578 C.ar    1  UNL1        0.0529
      5 C           9.9572   41.4525    6.2279 C.ar    1  UNL1        0.0534
      6 C           9.2393   40.5076    5.4781 C.ar    1  UNL1        0.0161
      7 C           7.9443   40.1418    5.8558 C.ar    1  UNL1        0.0190
      8 C           7.3592   40.7209    6.9840 C.ar    1  UNL1        0.0850
      9 C           5.4309   40.9425    8.5244 C.2     1  UNL1        0.2732
     10 O           7.4867   42.2467    8.8691 O.3     1  UNL1       -0.4618
     11 O           4.2756   40.5681    8.8624 O.2     1  UNL1       -0.2704
     12 N           6.0471   40.3444    7.3840 N.am    1  UNL1       -0.2783
     13 H           5.5581   39.6632    6.8682 H       1  UNL1        0.1551
     14 C          12.3792   42.0928    6.7706 C.2     1  UNL1        0.2261
     15 O          12.2470   41.9483    8.0149 O.2     1  UNL1       -0.2748
     16 N          11.2881   41.8513    5.8727 N.am    1  UNL1       -0.2838
     17 H          11.4714   41.9718    4.9130 H       1  UNL1        0.1549
     18 C          13.7021   42.4896    6.2188 C.3     1  UNL1        0.0854
     19 C          14.7832   42.2618    7.2605 C.3     1  UNL1        0.0096
     20 C          15.7247   43.4516    7.3141 C.3     1  UNL1        0.0005
     21 C          17.0321   43.0744    7.9780 C.3     1  UNL1        0.0000
     22 C          18.0756   43.9291    7.3003 C.3     1  UNL1        0.0000
     23 C          17.5821   44.1210    5.8816 C.3     1  UNL1        0.0000
     24 C          16.0804   43.8951    5.9082 C.3     1  UNL1        0.0000
     25 C           5.3687   43.3188    9.1567 C.2     1  UNL1        0.3623
     26 O           5.7420   44.1874    8.3191 O.2     1  UNL1       -0.2457
     27 O           4.2799   43.5722    9.9946 O.3     1  UNL1       -0.4458
     28 C           2.7507   42.3333   11.3616 C.3     1  UNL1        0.0513
     29 C           3.1030   42.7793    9.9580 C.3     1  UNL1        0.2087
@<TRIPOS>BOND
     1    28    29    1
     2    29    27    1
     3    25    27    1
     4     1    25    1
     5     1     2    1
     6     1    10    1
     7     1     9    1
     8     3    10    1
     9     4     5   ar
    10     5    16    1
    11    18    14    1
    12    18    19    1
    13    19    20    1
    14    20    21    1
    15    21    22    1
    16    22    23    1
    17    23    24    1
    18    24    20    1
    19     6     7   ar
    20     8    12    1
    21     8     3   ar
    22    16    14   am
    23    12     9   am
    24    25    26    2
    25     3     4   ar
    26     5     6   ar
    27    14    15    2
    28     7     8   ar
    29     9    11    2
    30    16    17    1
    31    12    13    1
@<TRIPOS>MOLECULE
MolPort-035-706-970 CSSS03437789225 MCULE-7258694995 PubChem-91938295
 29 31 0 0 0
SMALL
GASTEIGER

@<TRIPOS>ATOM
      1 C          14.9814   38.7886   10.2592 C.3     1  UNL1        0.2880
      2 C          14.7988   38.7719   11.7702 C.3     1  UNL1        0.0650
      3 C          13.5798   40.2350    8.7514 C.ar    1  UNL1        0.1542
      4 C          12.3247   40.4794    8.1862 C.ar    1  UNL1        0.0529
      5 C          12.1536   41.5102    7.2553 C.ar    1  UNL1        0.0534
      6 C          13.2565   42.3006    6.8955 C.ar    1  UNL1        0.0161
      7 C          14.5120   42.0613    7.4611 C.ar    1  UNL1        0.0190
      8 C          14.6720   41.0287    8.3877 C.ar    1  UNL1        0.0850
      9 C          16.1237   39.7228    9.9133 C.2     1  UNL1        0.2732
     10 O          13.7323   39.2002    9.6805 O.3     1  UNL1       -0.4618
     11 O          17.2590   39.5520   10.4340 O.2     1  UNL1       -0.2704
     12 N          15.9430   40.7869    8.9790 N.am    1  UNL1       -0.2783
     13 H          16.7071   41.3602    8.7410 H       1  UNL1        0.1551
     14 C           9.6251   41.8964    7.4231 C.2     1  UNL1        0.2261
     15 O           9.6027   41.8833    8.6823 O.2     1  UNL1       -0.2748
     16 N          10.8501   41.7267    6.6981 N.am    1  UNL1       -0.2838
     17 H          10.7903   41.7623    5.7160 H       1  UNL1        0.1549
     18 C           8.3612   42.1255    6.6734 C.3     1  UNL1        0.0854
     19 C           7.1717   41.7950    7.5575 C.3     1  UNL1        0.0096
     20 C           6.5979   43.0616    8.1668 C.3     1  UNL1        0.0005
     21 C           6.0313   43.9669    7.0936 C.3     1  UNL1        0.0000
     22 C           4.8717   44.6749    7.7514 C.3     1  UNL1        0.0000
     23 C           4.3174   43.6916    8.7608 C.3     1  UNL1        0.0000
     24 C           5.4380   42.7178    9.0813 C.3     1  UNL1        0.0000
     25 C          15.3107   37.4059    9.7659 C.2     1  UNL1        0.3623
     26 O          16.0235   37.2516    8.7346 O.2     1  UNL1       -0.2457
     27 O          14.7696   36.2959   10.4193 O.3     1  UNL1       -0.4458
     28 C          12.3845   36.0682   10.3868 C.3     1  UNL1        0.0513
     29 C          13.7039   35.5417    9.8622 C.3     1  UNL1        0.2087
@<TRIPOS>BOND
     1    28    29    1
     2    29    27    1
     3    25    27    1
     4     1    25    1
     5     1     2    1
     6     1    10    1
     7     1     9    1
     8     3    10    1
     9     4     5   ar
    10     5    16    1
    11    18    14    1
    12    18    19    1
    13    19    20    1
    14    20    21    1
    15    21    22    1
    16    22    23    1
    17    23    24    1
    18    24    20    1
    19     6     7   ar
    20     8    12    1
    21     8     3   ar
    22    16    14   am
    23    12     9   am
    24    25    26    2
    25     3     4   ar
    26     5     6   ar
    27    14    15    2
    28     7     8   ar
    29     9    11    2
    30    16    17    1
    31    12    13    1
@<TRIPOS>MOLECULE
MolPort-035-706-970 CSSS03437789225 MCULE-7258694995 PubChem-91938295
 29 31 0 0 0
SMALL
GASTEIGER

@<TRIPOS>ATOM
      1 C          14.0841   37.8229   10.2230 C.3     1  UNL1        0.2880
      2 C          14.1111   36.3343   10.5394 C.3     1  UNL1        0.0650
      3 C          11.9347   39.0905    9.9016 C.ar    1  UNL1        0.1542
      4 C          10.8118   39.3225    9.1018 C.ar    1  UNL1        0.0529
      5 C           9.8870   40.3146    9.4468 C.ar    1  UNL1        0.0534
      6 C          10.0964   41.0746   10.6082 C.ar    1  UNL1        0.0161
      7 C          11.2161   40.8431   11.4121 C.ar    1  UNL1        0.0190
      8 C          12.1338   39.8518   11.0574 C.ar    1  UNL1        0.0850
      9 C          14.2238   38.6020   11.5156 C.2     1  UNL1        0.2732
     10 O          12.8487   38.0944    9.5413 O.3     1  UNL1       -0.4618
     11 O          15.2057   38.3904   12.2774 O.2     1  UNL1       -0.2704
     12 N          13.2688   39.5996   11.8769 N.am    1  UNL1       -0.2783
     13 H          13.3973   40.1193   12.7032 H       1  UNL1        0.1551
     14 C           8.3265   41.7632    8.0195 C.2     1  UNL1        0.2261
     15 O           8.9712   42.8281    8.2113 O.2     1  UNL1       -0.2748
     16 N           8.7495   40.5219    8.5985 N.am    1  UNL1       -0.2838
     17 H           8.2025   39.7297    8.3924 H       1  UNL1        0.1549
     18 C           7.1213   41.7869    7.1483 C.3     1  UNL1        0.0854
     19 C           6.2200   42.9416    7.5485 C.3     1  UNL1        0.0096
     20 C           5.5131   42.6317    8.8558 C.3     1  UNL1        0.0005
     21 C           4.2754   43.4891    9.0153 C.3     1  UNL1        0.0000
     22 C           3.3023   42.6313    9.7874 C.3     1  UNL1        0.0000
     23 C           3.6024   41.2061    9.3729 C.3     1  UNL1        0.0000
     24 C           5.0306   41.1940    8.8564 C.3     1  UNL1        0.0000
     25 C          15.2274   38.1754    9.3107 C.2     1  UNL1        0.3623
     26 O          15.7319   37.2979    8.5551 O.2     1  UNL1       -0.2457
     27 O          15.7683   39.4629    9.3523 O.3     1  UNL1       -0.4458
     28 C          16.0757   41.6861    8.5128 C.3     1  UNL1        0.0513
     29 C          15.0825   40.5838    8.8155 C.3     1  UNL1        0.2087
@<TRIPOS>BOND
     1    28    29    1
     2    29    27    1
     3    25    27    1
     4     1    25    1
     5     1     2    1
     6     1    10    1
     7     1     9    1
     8     3    10    1
     9     4     5   ar
    10     5    16    1
    11    18    14    1
    12    18    19    1
    13    19    20    1
    14    20    21    1
    15    21    22    1
    16    22    23    1
    17    23    24    1
    18    24    20    1
    19     6     7   ar
    20     8    12    1
    21     8     3   ar
    22    16    14   am
    23    12     9   am
    24    25    26    2
    25     3     4   ar
    26     5     6   ar
    27    14    15    2
    28     7     8   ar
    29     9    11    2
    30    16    17    1
    31    12    13    1
@<TRIPOS>MOLECULE
MolPort-035-706-970 CSSS03437789225 MCULE-7258694995 PubChem-91938295
 29 31 0 0 0
SMALL
GASTEIGER

@<TRIPOS>ATOM
      1 C           5.7277   42.2024    9.3383 C.3     1  UNL1        0.2880
      2 C           5.7677   41.8796   10.8252 C.3     1  UNL1        0.0650
      3 C           7.7010   41.8187    7.8255 C.ar    1  UNL1        0.1542
      4 C           8.9918   42.2043    7.4516 C.ar    1  UNL1        0.0529
      5 C           9.6286   41.5937    6.3653 C.ar    1  UNL1        0.0534
      6 C           8.9586   40.5856    5.6545 C.ar    1  UNL1        0.0161
      7 C           7.6695   40.1951    6.0276 C.ar    1  UNL1        0.0190
      8 C           7.0424   40.8125    7.1122 C.ar    1  UNL1        0.0850
      9 C           5.0770   41.0479    8.6028 C.2     1  UNL1        0.2732
     10 O           7.0798   42.4401    8.9143 O.3     1  UNL1       -0.4618
     11 O           3.9286   40.6517    8.9394 O.2     1  UNL1       -0.2704
     12 N           5.7361   40.4119    7.5078 N.am    1  UNL1       -0.2783
     13 H           5.2811   39.6875    7.0206 H       1  UNL1        0.1551
     14 C          12.1655   41.7135    6.7128 C.2     1  UNL1        0.2261
     15 O          12.1620   40.9895    7.7435 O.2     1  UNL1       -0.2748
     16 N          10.9520   42.0195    6.0135 N.am    1  UNL1       -0.2838
     17 H          11.0359   42.5801    5.2086 H       1  UNL1        0.1549
     18 C          13.4574   42.2343    6.1914 C.3     1  UNL1        0.0854
     19 C          14.5351   42.0910    7.2515 C.3     1  UNL1        0.0096
     20 C          15.4438   43.3071    7.2492 C.3     1  UNL1        0.0005
     21 C          16.8041   42.9642    7.8186 C.3     1  UNL1        0.0000
     22 C          17.7737   43.8524    7.0772 C.3     1  UNL1        0.0000
     23 C          17.1781   44.0380    5.6974 C.3     1  UNL1        0.0000
     24 C          15.6889   43.7687    5.8256 C.3     1  UNL1        0.0000
     25 C           4.9211   43.4509    9.1049 C.2     1  UNL1        0.3623
     26 O           3.6667   43.3823    8.9739 O.2     1  UNL1       -0.2457
     27 O           5.5763   44.6775    8.9703 O.3     1  UNL1       -0.4458
     28 C           7.8761   45.2944    9.2389 C.3     1  UNL1        0.0513
     29 C           6.8122   44.7978    8.2825 C.3     1  UNL1        0.2087
@<TRIPOS>BOND
     1    28    29    1
     2    29    27    1
     3    25    27    1
     4     1    25    1
     5     1     2    1
     6     1    10    1
     7     1     9    1
     8     3    10    1
     9     4     5   ar
    10     5    16    1
    11    18    14    1
    12    18    19    1
    13    19    20    1
    14    20    21    1
    15    21    22    1
    16    22    23    1
    17    23    24    1
    18    24    20    1
    19     6     7   ar
    20     8    12    1
    21     8     3   ar
    22    16    14   am
    23    12     9   am
    24    25    26    2
    25     3     4   ar
    26     5     6   ar
    27    14    15    2
    28     7     8   ar
    29     9    11    2
    30    16    17    1
    31    12    13    1
@<TRIPOS>MOLECULE
MolPort-035-706-970 CSSS03437789225 MCULE-7258694995 PubChem-91938295
 29 31 0 0 0
SMALL
GASTEIGER

@<TRIPOS>ATOM
      1 C           6.4124   42.1450    9.6014 C.3     1  UNL1        0.2880
      2 C           5.7119   43.4957    9.5588 C.3     1  UNL1        0.0650
      3 C           8.9177   41.9267    9.5271 C.ar    1  UNL1        0.1542
      4 C          10.0891   42.0448    8.7730 C.ar    1  UNL1        0.0529
      5 C          11.3237   41.6712    9.3158 C.ar    1  UNL1        0.0534
      6 C          11.3756   41.1781   10.6290 C.ar    1  UNL1        0.0161
      7 C          10.2071   41.0620   11.3870 C.ar    1  UNL1        0.0190
      8 C           8.9799   41.4359   10.8349 C.ar    1  UNL1        0.0850
      9 C           6.5246   41.6958   11.0446 C.2     1  UNL1        0.2732
     10 O           7.6923   42.3052    8.9682 O.3     1  UNL1       -0.4618
     11 O           5.4916   41.6140   11.7627 O.2     1  UNL1       -0.2704
     12 N           7.7874   41.3344   11.6037 N.am    1  UNL1       -0.2783
     13 H           7.8335   41.0110   12.5324 H       1  UNL1        0.1551
     14 C          12.5494   42.0068    7.0896 C.2     1  UNL1        0.2261
     15 O          11.4959   42.1008    6.4057 O.2     1  UNL1       -0.2748
     16 N          12.5011   41.8064    8.5083 N.am    1  UNL1       -0.2838
     17 H          13.3656   41.7565    8.9767 H       1  UNL1        0.1549
     18 C          13.8696   42.1392    6.4176 C.3     1  UNL1        0.0854
     19 C          14.2425   43.6066    6.3011 C.3     1  UNL1        0.0096
     20 C          15.5196   43.8902    7.0714 C.3     1  UNL1        0.0005
     21 C          16.0734   42.6204    7.6823 C.3     1  UNL1        0.0000
     22 C          17.5716   42.8058    7.6788 C.3     1  UNL1        0.0000
     23 C          17.8706   43.6585    6.4636 C.3     1  UNL1        0.0000
     24 C          16.5906   44.4042    6.1288 C.3     1  UNL1        0.0000
     25 C           5.6154   41.1280    8.8307 C.2     1  UNL1        0.3623
     26 O           5.9981   40.7545    7.6864 O.2     1  UNL1       -0.2457
     27 O           4.4157   40.6483    9.3623 O.3     1  UNL1       -0.4458
     28 C           2.6253   41.7655   10.4973 C.3     1  UNL1        0.0513
     29 C           3.1822   41.3213    9.1610 C.3     1  UNL1        0.2087
@<TRIPOS>BOND
     1    28    29    1
     2    29    27    1
     3    25    27    1
     4     1    25    1
     5     1     2    1
     6     1    10    1
     7     1     9    1
     8     3    10    1
     9     4     5   ar
    10     5    16    1
    11    18    14    1
    12    18    19    1
    13    19    20    1
    14    20    21    1
    15    21    22    1
    16    22    23    1
    17    23    24    1
    18    24    20    1
    19     6     7   ar
    20     8    12    1
    21     8     3   ar
    22    16    14   am
    23    12     9   am
    24    25    26    2
    25     3     4   ar
    26     5     6   ar
    27    14    15    2
    28     7     8   ar
    29     9    11    2
    30    16    17    1
    31    12    13    1
