@<TRIPOS>MOLECULE
MolPort-002-631-803 2596191 PubChem-2006365 ZINC000002596191 ZINC02596191
 29 32 0 0 0
SMALL
GASTEIGER

@<TRIPOS>ATOM
      1 C          12.4727   42.2556    6.5934 C.ar    1  UNL1        0.1571
      2 C          13.3659   41.6466    7.4609 C.ar    1  UNL1        0.0689
      3 C          13.2380   40.7320    8.5014 C.ar    1  UNL1        0.0075
      4 C          14.4115   40.3857    9.1932 C.ar    1  UNL1        0.0209
      5 C          14.3652   39.4636   10.2407 C.ar    1  UNL1        0.0384
      6 C          15.5322   39.1190   10.9312 C.ar    1  UNL1        0.1388
      7 C          16.7556   39.7077   10.5662 C.ar    1  UNL1        0.0384
      8 C          16.8172   40.6337    9.5208 C.ar    1  UNL1        0.0223
      9 C          15.6573   40.9812    8.8265 C.ar    1  UNL1        0.0831
     10 C          14.5714   42.2054    7.1514 C.ar    1  UNL1        0.1621
     11 N          14.4203   43.1103    6.1699 N.ar    1  UNL1       -0.2329
     12 N          13.1381   43.1532    5.8250 N.ar    1  UNL1       -0.1527
     13 N          15.7157   41.8931    7.8102 N.ar    1  UNL1       -0.2268
     14 C          10.3580   40.9428    6.0241 C.2     1  UNL1        0.2506
     15 N          11.0509   42.0873    6.5380 N.am    1  UNL1       -0.2644
     16 O          10.9591   40.1111    5.2914 O.2     1  UNL1       -0.2698
     17 H          10.4994   42.8255    6.8848 H       1  UNL1        0.1566
     18 C           8.9229   40.7667    6.3069 C.ar    1  UNL1        0.0537
     19 C           8.2583   39.6007    5.8995 C.ar    1  UNL1        0.0045
     20 C           6.8960   39.4334    6.1655 C.ar    1  UNL1        0.0001
     21 C           6.1882   40.4314    6.8407 C.ar    1  UNL1        0.0000
     22 C           6.8422   41.5968    7.2497 C.ar    1  UNL1        0.0001
     23 C           8.2044   41.7639    6.9836 C.ar    1  UNL1        0.0045
     24 C          14.5173   37.1191   11.9749 C.3     1  UNL1        0.2525
     25 O          15.4492   38.1918   11.9737 O.3     1  UNL1       -0.4714
     26 C          15.4566   43.9247    5.5532 C.3     1  UNL1        0.1292
     27 C          16.2608   44.6504    6.6204 C.3     1  UNL1        0.0264
     28 C          18.1808   43.9597    8.0524 C.3     1  UNL1        0.0001
     29 C          17.6966   44.1579    6.6283 C.3     1  UNL1        0.0021
@<TRIPOS>BOND
     1    28    29    1
     2    29    27    1
     3    27    26    1
     4    26    11    1
     5     1    15    1
     6     1     2   ar
     7    14    18    1
     8    19    20   ar
     9    21    22   ar
    10    23    18   ar
    11     3     4   ar
    12     5     6   ar
    13     6    25    1
    14    24    25    1
    15     7     8   ar
    16     9    13   ar
    17     9     4   ar
    18    10    11   ar
    19    10     2   ar
    20    11    12   ar
    21    15    14   am
    22     1    12   ar
    23    14    16    2
    24    18    19   ar
    25    20    21   ar
    26    22    23   ar
    27     2     3   ar
    28     4     5   ar
    29     6     7   ar
    30     8     9   ar
    31    10    13   ar
    32    15    17    1
@<TRIPOS>MOLECULE
MolPort-002-631-803 2596191 PubChem-2006365 ZINC000002596191 ZINC02596191
 29 32 0 0 0
SMALL
GASTEIGER

@<TRIPOS>ATOM
      1 C          11.6857   41.8019    7.4875 C.ar    1  UNL1        0.1571
      2 C          10.7674   41.7637    8.5251 C.ar    1  UNL1        0.0689
      3 C          10.8704   41.7519    9.9125 C.ar    1  UNL1        0.0075
      4 C           9.6714   41.6570   10.6397 C.ar    1  UNL1        0.0209
      5 C           9.6930   41.6532   12.0358 C.ar    1  UNL1        0.0384
      6 C           8.5004   41.5573   12.7610 C.ar    1  UNL1        0.1388
      7 C           7.2760   41.4630   12.0765 C.ar    1  UNL1        0.0384
      8 C           7.2388   41.4638   10.6791 C.ar    1  UNL1        0.0223
      9 C           8.4245   41.5605    9.9490 C.ar    1  UNL1        0.0831
     10 C           9.5587   41.6536    7.9023 C.ar    1  UNL1        0.1621
     11 N           9.7300   41.6097    6.5705 N.ar    1  UNL1       -0.2329
     12 N          11.0291   41.6938    6.3060 N.ar    1  UNL1       -0.1527
     13 N           8.3892   41.5525    8.5827 N.ar    1  UNL1       -0.2268
     14 C          13.9780   42.7658    6.9082 C.2     1  UNL1        0.2506
     15 N          13.1148   41.8414    7.5823 N.am    1  UNL1       -0.2644
     16 O          13.5531   43.4334    5.9266 O.2     1  UNL1       -0.2698
     17 H          13.5431   41.1722    8.1637 H       1  UNL1        0.1566
     18 C          15.3842   42.8957    7.3284 C.ar    1  UNL1        0.0537
     19 C          15.9609   41.9403    8.1782 C.ar    1  UNL1        0.0045
     20 C          17.2945   42.0637    8.5793 C.ar    1  UNL1        0.0001
     21 C          18.0611   43.1438    8.1337 C.ar    1  UNL1        0.0000
     22 C          17.4944   44.1008    7.2874 C.ar    1  UNL1        0.0001
     23 C          16.1609   43.9773    6.8864 C.ar    1  UNL1        0.0045
     24 C           9.5261   40.8130   14.8854 C.3     1  UNL1        0.2525
     25 O           8.5592   41.5575   14.1573 O.3     1  UNL1       -0.4714
     26 C           8.6976   41.4960    5.5512 C.3     1  UNL1        0.1292
     27 C           7.3399   41.8543    6.1346 C.3     1  UNL1        0.0264
     28 C           6.1975   43.8845    7.0217 C.3     1  UNL1        0.0001
     29 C           7.0246   43.3177    5.8831 C.3     1  UNL1        0.0021
@<TRIPOS>BOND
     1    28    29    1
     2    29    27    1
     3    27    26    1
     4    26    11    1
     5     1    15    1
     6     1     2   ar
     7    14    18    1
     8    19    20   ar
     9    21    22   ar
    10    23    18   ar
    11     3     4   ar
    12     5     6   ar
    13     6    25    1
    14    24    25    1
    15     7     8   ar
    16     9    13   ar
    17     9     4   ar
    18    10    11   ar
    19    10     2   ar
    20    11    12   ar
    21    15    14   am
    22     1    12   ar
    23    14    16    2
    24    18    19   ar
    25    20    21   ar
    26    22    23   ar
    27     2     3   ar
    28     4     5   ar
    29     6     7   ar
    30     8     9   ar
    31    10    13   ar
    32    15    17    1
@<TRIPOS>MOLECULE
MolPort-002-631-803 2596191 PubChem-2006365 ZINC000002596191 ZINC02596191
 29 32 0 0 0
SMALL
GASTEIGER

@<TRIPOS>ATOM
      1 C          12.6500   37.9904    5.3275 C.ar    1  UNL1        0.1571
      2 C          12.7032   38.3927    6.6529 C.ar    1  UNL1        0.0689
      3 C          13.5731   38.1417    7.7093 C.ar    1  UNL1        0.0075
      4 C          13.2482   38.7128    8.9517 C.ar    1  UNL1        0.0209
      5 C          14.0802   38.5170   10.0558 C.ar    1  UNL1        0.0384
      6 C          13.7573   39.0837   11.2936 C.ar    1  UNL1        0.1388
      7 C          12.5872   39.8523   11.4224 C.ar    1  UNL1        0.0384
      8 C          11.7436   40.0555   10.3264 C.ar    1  UNL1        0.0223
      9 C          12.0601   39.4945    9.0882 C.ar    1  UNL1        0.0831
     10 C          11.5698   39.1316    6.8272 C.ar    1  UNL1        0.1621
     11 N          10.8615   39.1632    5.6860 N.ar    1  UNL1       -0.2329
     12 N          11.5111   38.4626    4.7630 N.ar    1  UNL1       -0.1527
     13 N          11.2310   39.6856    8.0185 N.ar    1  UNL1       -0.2268
     14 C          14.5209   36.2548    5.2439 C.2     1  UNL1        0.2506
     15 N          13.5618   37.1288    4.6353 N.am    1  UNL1       -0.2644
     16 O          14.8445   36.4083    6.4528 O.2     1  UNL1       -0.2698
     17 H          13.5263   37.1380    3.6515 H       1  UNL1        0.1566
     18 C          15.1731   35.2076    4.4385 C.ar    1  UNL1        0.0537
     19 C          16.3230   35.5018    3.6911 C.ar    1  UNL1        0.0045
     20 C          16.9415   34.5094    2.9248 C.ar    1  UNL1        0.0001
     21 C          16.4143   33.2155    2.9001 C.ar    1  UNL1        0.0000
     22 C          15.2685   32.9137    3.6412 C.ar    1  UNL1        0.0001
     23 C          14.6501   33.9061    4.4074 C.ar    1  UNL1        0.0045
     24 C          16.0184   38.7173   12.2275 C.3     1  UNL1        0.2525
     25 O          14.6133   38.8681   12.3771 O.3     1  UNL1       -0.4714
     26 C           9.5956   39.8416    5.4515 C.3     1  UNL1        0.1292
     27 C           9.7782   41.3476    5.5546 C.3     1  UNL1        0.0264
     28 C           8.8317   42.1923    7.7003 C.3     1  UNL1        0.0001
     29 C           8.5714   41.9834    6.2204 C.3     1  UNL1        0.0021
@<TRIPOS>BOND
     1    28    29    1
     2    29    27    1
     3    27    26    1
     4    26    11    1
     5     1    15    1
     6     1     2   ar
     7    14    18    1
     8    19    20   ar
     9    21    22   ar
    10    23    18   ar
    11     3     4   ar
    12     5     6   ar
    13     6    25    1
    14    24    25    1
    15     7     8   ar
    16     9    13   ar
    17     9     4   ar
    18    10    11   ar
    19    10     2   ar
    20    11    12   ar
    21    15    14   am
    22     1    12   ar
    23    14    16    2
    24    18    19   ar
    25    20    21   ar
    26    22    23   ar
    27     2     3   ar
    28     4     5   ar
    29     6     7   ar
    30     8     9   ar
    31    10    13   ar
    32    15    17    1
@<TRIPOS>MOLECULE
MolPort-002-631-803 2596191 PubChem-2006365 ZINC000002596191 ZINC02596191
 29 32 0 0 0
SMALL
GASTEIGER

@<TRIPOS>ATOM
      1 C          11.9291   41.7008    7.3597 C.ar    1  UNL1        0.1571
      2 C          13.0721   41.2507    8.0018 C.ar    1  UNL1        0.0689
      3 C          13.3146   40.3496    9.0337 C.ar    1  UNL1        0.0075
      4 C          14.6497   40.1972    9.4459 C.ar    1  UNL1        0.0209
      5 C          14.9735   39.3011   10.4665 C.ar    1  UNL1        0.0384
      6 C          16.3018   39.1495   10.8790 C.ar    1  UNL1        0.1388
      7 C          17.3126   39.9064   10.2608 C.ar    1  UNL1        0.0384
      8 C          17.0033   40.8087    9.2390 C.ar    1  UNL1        0.0223
      9 C          15.6806   40.9642    8.8213 C.ar    1  UNL1        0.0831
     10 C          14.0822   41.9765    7.4414 C.ar    1  UNL1        0.1621
     11 N          13.5851   42.8275    6.5284 N.ar    1  UNL1       -0.2329
     12 N          12.2670   42.6711    6.4747 N.ar    1  UNL1       -0.1527
     13 N          15.3767   41.8527    7.8283 N.ar    1  UNL1       -0.2268
     14 C           9.7880   41.7129    8.7507 C.2     1  UNL1        0.2506
     15 N          10.5717   41.3209    7.6166 N.am    1  UNL1       -0.2644
     16 O          10.3467   42.1853    9.7776 O.2     1  UNL1       -0.2698
     17 H          10.1375   40.7370    6.9533 H       1  UNL1        0.1566
     18 C           8.3286   41.5111    8.7383 C.ar    1  UNL1        0.0537
     19 C           7.5604   41.8247    9.8692 C.ar    1  UNL1        0.0045
     20 C           6.1758   41.6316    9.8593 C.ar    1  UNL1        0.0001
     21 C           5.5493   41.1231    8.7184 C.ar    1  UNL1        0.0000
     22 C           6.3070   40.8073    7.5874 C.ar    1  UNL1        0.0001
     23 C           7.6915   41.0003    7.5974 C.ar    1  UNL1        0.0045
     24 C          17.5821   37.2330   11.7775 C.3     1  UNL1        0.2525
     25 O          16.5900   38.2427   11.9027 O.3     1  UNL1       -0.4714
     26 C          14.3262   43.7743    5.7088 C.3     1  UNL1        0.1292
     27 C          15.4325   44.4242    6.5249 C.3     1  UNL1        0.0264
     28 C          17.8597   44.0675    6.9667 C.3     1  UNL1        0.0001
     29 C          16.7866   44.1471    5.8973 C.3     1  UNL1        0.0021
@<TRIPOS>BOND
     1    28    29    1
     2    29    27    1
     3    27    26    1
     4    26    11    1
     5     1    15    1
     6     1     2   ar
     7    14    18    1
     8    19    20   ar
     9    21    22   ar
    10    23    18   ar
    11     3     4   ar
    12     5     6   ar
    13     6    25    1
    14    24    25    1
    15     7     8   ar
    16     9    13   ar
    17     9     4   ar
    18    10    11   ar
    19    10     2   ar
    20    11    12   ar
    21    15    14   am
    22     1    12   ar
    23    14    16    2
    24    18    19   ar
    25    20    21   ar
    26    22    23   ar
    27     2     3   ar
    28     4     5   ar
    29     6     7   ar
    30     8     9   ar
    31    10    13   ar
    32    15    17    1
@<TRIPOS>MOLECULE
MolPort-002-631-803 2596191 PubChem-2006365 ZINC000002596191 ZINC02596191
 29 32 0 0 0
SMALL
GASTEIGER

@<TRIPOS>ATOM
      1 C          11.9232   41.8755    7.3714 C.ar    1  UNL1        0.1571
      2 C          12.4858   40.7483    7.9496 C.ar    1  UNL1        0.0689
      3 C          11.9690   39.5897    8.5206 C.ar    1  UNL1        0.0075
      4 C          12.8932   38.6765    9.0566 C.ar    1  UNL1        0.0209
      5 C          12.4513   37.4846    9.6342 C.ar    1  UNL1        0.0384
      6 C          13.3701   36.5753   10.1696 C.ar    1  UNL1        0.1388
      7 C          14.7444   36.8678   10.1250 C.ar    1  UNL1        0.0384
      8 C          15.2016   38.0578    9.5515 C.ar    1  UNL1        0.0223
      9 C          14.2910   38.9690    9.0142 C.ar    1  UNL1        0.0831
     10 C          13.8268   40.9989    7.9427 C.ar    1  UNL1        0.1621
     11 N          14.0656   42.2091    7.4105 N.ar    1  UNL1       -0.2329
     12 N          12.9064   42.7569    7.0629 N.ar    1  UNL1       -0.1527
     13 N          14.7370   40.1367    8.4614 N.ar    1  UNL1       -0.2268
     14 C           9.5869   42.4241    8.2432 C.2     1  UNL1        0.2506
     15 N          10.5319   42.1696    7.1962 N.am    1  UNL1       -0.2644
     16 O           9.8537   42.1033    9.4331 O.2     1  UNL1       -0.2698
     17 H          10.1941   42.1996    6.2720 H       1  UNL1        0.1566
     18 C           8.2753   43.0121    7.9199 C.ar    1  UNL1        0.0537
     19 C           7.6404   43.8711    8.8289 C.ar    1  UNL1        0.0045
     20 C           6.3947   44.4279    8.5240 C.ar    1  UNL1        0.0001
     21 C           5.7747   44.1293    7.3077 C.ar    1  UNL1        0.0000
     22 C           6.3997   43.2738    6.3964 C.ar    1  UNL1        0.0001
     23 C           7.6453   42.7171    6.7014 C.ar    1  UNL1        0.0045
     24 C          11.5489   35.2363   11.1746 C.3     1  UNL1        0.2525
     25 O          12.8926   35.3916   10.7390 O.3     1  UNL1       -0.4714
     26 C          15.3581   42.8504    7.2211 C.3     1  UNL1        0.1292
     27 C          16.3679   42.3049    8.2185 C.3     1  UNL1        0.0264
     28 C          17.8596   44.0327    7.2168 C.3     1  UNL1        0.0001
     29 C          17.4454   43.3364    8.4995 C.3     1  UNL1        0.0021
@<TRIPOS>BOND
     1    28    29    1
     2    29    27    1
     3    27    26    1
     4    26    11    1
     5     1    15    1
     6     1     2   ar
     7    14    18    1
     8    19    20   ar
     9    21    22   ar
    10    23    18   ar
    11     3     4   ar
    12     5     6   ar
    13     6    25    1
    14    24    25    1
    15     7     8   ar
    16     9    13   ar
    17     9     4   ar
    18    10    11   ar
    19    10     2   ar
    20    11    12   ar
    21    15    14   am
    22     1    12   ar
    23    14    16    2
    24    18    19   ar
    25    20    21   ar
    26    22    23   ar
    27     2     3   ar
    28     4     5   ar
    29     6     7   ar
    30     8     9   ar
    31    10    13   ar
    32    15    17    1
@<TRIPOS>MOLECULE
MolPort-002-631-803 2596191 PubChem-2006365 ZINC000002596191 ZINC02596191
 29 32 0 0 0
SMALL
GASTEIGER

@<TRIPOS>ATOM
      1 C          11.8305   41.4974    7.1523 C.ar    1  UNL1        0.1571
      2 C          10.8588   41.5335    8.1402 C.ar    1  UNL1        0.0689
      3 C          10.8854   41.6881    9.5226 C.ar    1  UNL1        0.0075
      4 C           9.6533   41.6179   10.1954 C.ar    1  UNL1        0.0209
      5 C           9.5979   41.7774   11.5814 C.ar    1  UNL1        0.0384
      6 C           8.3724   41.7062   12.2527 C.ar    1  UNL1        0.1388
      7 C           7.1931   41.4714   11.5242 C.ar    1  UNL1        0.0384
      8 C           7.2332   41.3080   10.1365 C.ar    1  UNL1        0.0223
      9 C           8.4520   41.3791    9.4599 C.ar    1  UNL1        0.0831
     10 C           9.6924   41.2910    7.4755 C.ar    1  UNL1        0.1621
     11 N           9.9388   41.1015    6.1685 N.ar    1  UNL1       -0.2329
     12 N          11.2456   41.2198    5.9608 N.ar    1  UNL1       -0.1527
     13 N           8.4927   41.2106    8.1042 N.ar    1  UNL1       -0.2268
     14 C          14.0698   42.6652    6.7767 C.2     1  UNL1        0.2506
     15 N          13.2490   41.6197    7.3127 N.am    1  UNL1       -0.2644
     16 O          13.6353   43.4047    5.8524 O.2     1  UNL1       -0.2698
     17 H          13.7013   40.9216    7.8393 H       1  UNL1        0.1566
     18 C          15.4473   42.8409    7.2688 C.ar    1  UNL1        0.0537
     19 C          15.9908   41.9355    8.1919 C.ar    1  UNL1        0.0045
     20 C          17.2972   42.1025    8.6612 C.ar    1  UNL1        0.0001
     21 C          18.0694   43.1766    8.2109 C.ar    1  UNL1        0.0000
     22 C          17.5357   44.0840    7.2918 C.ar    1  UNL1        0.0001
     23 C          16.2294   43.9169    6.8226 C.ar    1  UNL1        0.0045
     24 C           9.1471   41.0845   14.5182 C.3     1  UNL1        0.2525
     25 O           8.3538   41.8715   13.6403 O.3     1  UNL1       -0.4714
     26 C           8.9705   40.8182    5.1199 C.3     1  UNL1        0.1292
     27 C           8.9990   39.3406    4.7620 C.3     1  UNL1        0.0264
     28 C           9.7710   37.6517    3.0990 C.3     1  UNL1        0.0001
     29 C           9.7451   39.1256    3.4577 C.3     1  UNL1        0.0021
@<TRIPOS>BOND
     1    28    29    1
     2    29    27    1
     3    27    26    1
     4    26    11    1
     5     1    15    1
     6     1     2   ar
     7    14    18    1
     8    19    20   ar
     9    21    22   ar
    10    23    18   ar
    11     3     4   ar
    12     5     6   ar
    13     6    25    1
    14    24    25    1
    15     7     8   ar
    16     9    13   ar
    17     9     4   ar
    18    10    11   ar
    19    10     2   ar
    20    11    12   ar
    21    15    14   am
    22     1    12   ar
    23    14    16    2
    24    18    19   ar
    25    20    21   ar
    26    22    23   ar
    27     2     3   ar
    28     4     5   ar
    29     6     7   ar
    30     8     9   ar
    31    10    13   ar
    32    15    17    1
@<TRIPOS>MOLECULE
MolPort-002-631-803 2596191 PubChem-2006365 ZINC000002596191 ZINC02596191
 29 32 0 0 0
SMALL
GASTEIGER

@<TRIPOS>ATOM
      1 C          11.9899   39.9913    7.0929 C.ar    1  UNL1        0.1571
      2 C          12.8195   41.0800    6.8741 C.ar    1  UNL1        0.0689
      3 C          14.1477   41.3643    7.1752 C.ar    1  UNL1        0.0075
      4 C          14.6234   42.6379    6.8187 C.ar    1  UNL1        0.0209
      5 C          15.9493   42.9917    7.0760 C.ar    1  UNL1        0.0384
      6 C          16.4239   44.2596    6.7230 C.ar    1  UNL1        0.1388
      7 C          15.5574   45.1798    6.1075 C.ar    1  UNL1        0.0384
      8 C          14.2269   44.8405    5.8451 C.ar    1  UNL1        0.0223
      9 C          13.7469   43.5769    6.1933 C.ar    1  UNL1        0.0831
     10 C          12.0096   42.0096    6.2903 C.ar    1  UNL1        0.1621
     11 N          10.7615   41.5255    6.1764 N.ar    1  UNL1       -0.2329
     12 N          10.7371   40.2925    6.6703 N.ar    1  UNL1       -0.1527
     13 N          12.4438   43.2478    5.9449 N.ar    1  UNL1       -0.2268
     14 C          12.4235   38.5637    9.1650 C.2     1  UNL1        0.2506
     15 N          12.3141   38.7597    7.7495 N.am    1  UNL1       -0.2644
     16 O          12.5405   39.5535    9.9373 O.2     1  UNL1       -0.2698
     17 H          12.4766   37.9764    7.1757 H       1  UNL1        0.1566
     18 C          12.4557   37.1975    9.7155 C.ar    1  UNL1        0.0537
     19 C          11.4238   36.7459   10.5513 C.ar    1  UNL1        0.0045
     20 C          11.4544   35.4504   11.0760 C.ar    1  UNL1        0.0001
     21 C          12.5176   34.5971   10.7689 C.ar    1  UNL1        0.0000
     22 C          13.5504   35.0389    9.9375 C.ar    1  UNL1        0.0001
     23 C          13.5197   36.3344    9.4130 C.ar    1  UNL1        0.0045
     24 C          18.5246   43.9006    7.9789 C.3     1  UNL1        0.2525
     25 O          17.7570   44.5796    6.9945 O.3     1  UNL1       -0.4714
     26 C           9.6023   42.1982    5.6097 C.3     1  UNL1        0.1292
     27 C           8.3327   41.7385    6.3089 C.3     1  UNL1        0.0264
     28 C           7.5446   43.4683    7.9216 C.3     1  UNL1        0.0001
     29 C           7.3901   42.9095    6.5197 C.3     1  UNL1        0.0021
@<TRIPOS>BOND
     1    28    29    1
     2    29    27    1
     3    27    26    1
     4    26    11    1
     5     1    15    1
     6     1     2   ar
     7    14    18    1
     8    19    20   ar
     9    21    22   ar
    10    23    18   ar
    11     3     4   ar
    12     5     6   ar
    13     6    25    1
    14    24    25    1
    15     7     8   ar
    16     9    13   ar
    17     9     4   ar
    18    10    11   ar
    19    10     2   ar
    20    11    12   ar
    21    15    14   am
    22     1    12   ar
    23    14    16    2
    24    18    19   ar
    25    20    21   ar
    26    22    23   ar
    27     2     3   ar
    28     4     5   ar
    29     6     7   ar
    30     8     9   ar
    31    10    13   ar
    32    15    17    1
@<TRIPOS>MOLECULE
MolPort-002-631-803 2596191 PubChem-2006365 ZINC000002596191 ZINC02596191
 29 32 0 0 0
SMALL
GASTEIGER

@<TRIPOS>ATOM
      1 C          14.4520   40.6289    8.7665 C.ar    1  UNL1        0.1571
      2 C          13.2223   40.9813    9.3004 C.ar    1  UNL1        0.0689
      3 C          12.5278   40.6294   10.4535 C.ar    1  UNL1        0.0075
      4 C          11.2460   41.1818   10.6189 C.ar    1  UNL1        0.0209
      5 C          10.4936   40.8862   11.7573 C.ar    1  UNL1        0.0384
      6 C           9.2168   41.4340   11.9226 C.ar    1  UNL1        0.1388
      7 C           8.6920   42.2851   10.9343 C.ar    1  UNL1        0.0384
      8 C           9.4330   42.5887    9.7885 C.ar    1  UNL1        0.0223
      9 C          10.7079   42.0469    9.6173 C.ar    1  UNL1        0.0831
     10 C          12.6674   41.7984    8.3593 C.ar    1  UNL1        0.1621
     11 N          13.4979   41.9222    7.3106 N.ar    1  UNL1       -0.2329
     12 N          14.5910   41.2053    7.5471 N.ar    1  UNL1       -0.1527
     13 N          11.4290   42.3365    8.4931 N.ar    1  UNL1       -0.2268
     14 C          15.3278   38.2935    9.3129 C.2     1  UNL1        0.2506
     15 N          15.4186   39.7238    9.3138 N.am    1  UNL1       -0.2644
     16 O          14.2232   37.7262    9.0941 O.2     1  UNL1       -0.2698
     17 H          16.2185   40.1208    9.7283 H       1  UNL1        0.1566
     18 C          16.5181   37.4832    9.6243 C.ar    1  UNL1        0.0537
     19 C          16.8034   36.3283    8.8812 C.ar    1  UNL1        0.0045
     20 C          17.9315   35.5575    9.1773 C.ar    1  UNL1        0.0001
     21 C          18.7826   35.9359   10.2191 C.ar    1  UNL1        0.0000
     22 C          18.5057   37.0847   10.9652 C.ar    1  UNL1        0.0001
     23 C          17.3776   37.8554   10.6691 C.ar    1  UNL1        0.0045
     24 C           9.0839   41.0714   14.3660 C.3     1  UNL1        0.2525
     25 O           8.4920   41.1176   13.0749 O.3     1  UNL1       -0.4714
     26 C          13.2823   42.7027    6.1015 C.3     1  UNL1        0.1292
     27 C          14.0564   44.0095    6.1733 C.3     1  UNL1        0.0264
     28 C          16.5333   44.2905    6.1576 C.3     1  UNL1        0.0001
     29 C          15.3154   43.9267    5.3293 C.3     1  UNL1        0.0021
@<TRIPOS>BOND
     1    28    29    1
     2    29    27    1
     3    27    26    1
     4    26    11    1
     5     1    15    1
     6     1     2   ar
     7    14    18    1
     8    19    20   ar
     9    21    22   ar
    10    23    18   ar
    11     3     4   ar
    12     5     6   ar
    13     6    25    1
    14    24    25    1
    15     7     8   ar
    16     9    13   ar
    17     9     4   ar
    18    10    11   ar
    19    10     2   ar
    20    11    12   ar
    21    15    14   am
    22     1    12   ar
    23    14    16    2
    24    18    19   ar
    25    20    21   ar
    26    22    23   ar
    27     2     3   ar
    28     4     5   ar
    29     6     7   ar
    30     8     9   ar
    31    10    13   ar
    32    15    17    1
@<TRIPOS>MOLECULE
MolPort-002-631-803 2596191 PubChem-2006365 ZINC000002596191 ZINC02596191
 29 32 0 0 0
SMALL
GASTEIGER

@<TRIPOS>ATOM
      1 C          12.5479   39.1940    9.1409 C.ar    1  UNL1        0.1571
      2 C          13.5465   40.0972    8.8114 C.ar    1  UNL1        0.0689
      3 C          13.6219   41.1912    7.9553 C.ar    1  UNL1        0.0075
      4 C          14.8645   41.8411    7.8598 C.ar    1  UNL1        0.0209
      5 C          15.0145   42.9552    7.0317 C.ar    1  UNL1        0.0384
      6 C          16.2512   43.6023    6.9344 C.ar    1  UNL1        0.1388
      7 C          17.3463   43.1240    7.6749 C.ar    1  UNL1        0.0384
      8 C          17.2117   42.0086    8.5067 C.ar    1  UNL1        0.0223
      9 C          15.9807   41.3589    8.6098 C.ar    1  UNL1        0.0831
     10 C          14.6397   39.6574    9.4989 C.ar    1  UNL1        0.1621
     11 N          14.3323   38.5469   10.1897 N.ar    1  UNL1       -0.2329
     12 N          13.0555   38.2511    9.9728 N.ar    1  UNL1       -0.1527
     13 N          15.8510   40.2631    9.4163 N.ar    1  UNL1       -0.2268
     14 C          10.1996   40.1469    8.8298 C.2     1  UNL1        0.2506
     15 N          11.2075   39.1464    8.6370 N.am    1  UNL1       -0.2644
     16 O          10.3328   41.0191    9.7306 O.2     1  UNL1       -0.2698
     17 H          10.9557   38.3538    8.1101 H       1  UNL1        0.1566
     18 C           8.9763   40.1228    8.0092 C.ar    1  UNL1        0.0537
     19 C           8.8939   39.2887    6.8845 C.ar    1  UNL1        0.0045
     20 C           7.7343   39.2666    6.1038 C.ar    1  UNL1        0.0001
     21 C           6.6486   40.0789    6.4420 C.ar    1  UNL1        0.0000
     22 C           6.7223   40.9135    7.5605 C.ar    1  UNL1        0.0001
     23 C           7.8818   40.9356    8.3410 C.ar    1  UNL1        0.0045
     24 C          15.2374   45.4374    5.6215 C.3     1  UNL1        0.2525
     25 O          16.3652   44.7152    6.0966 O.3     1  UNL1       -0.4714
     26 C          15.2133   37.7692   11.0479 C.3     1  UNL1        0.1292
     27 C          16.4886   38.5459   11.3354 C.3     1  UNL1        0.0264
     28 C          18.8669   38.7163   10.6086 C.3     1  UNL1        0.0001
     29 C          17.7005   37.7752   10.8443 C.3     1  UNL1        0.0021
@<TRIPOS>BOND
     1    28    29    1
     2    29    27    1
     3    27    26    1
     4    26    11    1
     5     1    15    1
     6     1     2   ar
     7    14    18    1
     8    19    20   ar
     9    21    22   ar
    10    23    18   ar
    11     3     4   ar
    12     5     6   ar
    13     6    25    1
    14    24    25    1
    15     7     8   ar
    16     9    13   ar
    17     9     4   ar
    18    10    11   ar
    19    10     2   ar
    20    11    12   ar
    21    15    14   am
    22     1    12   ar
    23    14    16    2
    24    18    19   ar
    25    20    21   ar
    26    22    23   ar
    27     2     3   ar
    28     4     5   ar
    29     6     7   ar
    30     8     9   ar
    31    10    13   ar
    32    15    17    1
@<TRIPOS>MOLECULE
MolPort-002-631-803 2596191 PubChem-2006365 ZINC000002596191 ZINC02596191
 29 32 0 0 0
SMALL
GASTEIGER

@<TRIPOS>ATOM
      1 C          12.6508   41.2881    9.0025 C.ar    1  UNL1        0.1571
      2 C          12.7428   39.9243    9.2323 C.ar    1  UNL1        0.0689
      3 C          13.6893   38.9506    8.9294 C.ar    1  UNL1        0.0075
      4 C          13.3858   37.6295    9.3009 C.ar    1  UNL1        0.0209
      5 C          14.2925   36.5996    9.0426 C.ar    1  UNL1        0.0384
      6 C          13.9911   35.2837    9.4104 C.ar    1  UNL1        0.1388
      7 C          12.7671   35.0012   10.0418 C.ar    1  UNL1        0.0384
      8 C          11.8488   36.0217   10.3052 C.ar    1  UNL1        0.0223
      9 C          12.1432   37.3369    9.9424 C.ar    1  UNL1        0.0831
     10 C          11.5605   39.6024    9.8319 C.ar    1  UNL1        0.1621
     11 N          10.7892   40.6966    9.9446 N.ar    1  UNL1       -0.2329
     12 N          11.4449   41.7332    9.4344 N.ar    1  UNL1       -0.1527
     13 N          11.2418   38.3336   10.1918 N.ar    1  UNL1       -0.2268
     14 C          15.0185   41.9686    8.3317 C.2     1  UNL1        0.2506
     15 N          13.5944   42.1295    8.3283 N.am    1  UNL1       -0.2644
     16 O          15.5741   41.2356    9.1942 O.2     1  UNL1       -0.2698
     17 H          13.2313   42.8876    7.8158 H       1  UNL1        0.1566
     18 C          15.8419   42.7068    7.3582 C.ar    1  UNL1        0.0537
     19 C          17.2328   42.7848    7.5215 C.ar    1  UNL1        0.0045
     20 C          18.0149   43.4869    6.5995 C.ar    1  UNL1        0.0001
     21 C          17.4115   44.1165    5.5075 C.ar    1  UNL1        0.0000
     22 C          16.0263   44.0446    5.3374 C.ar    1  UNL1        0.0001
     23 C          15.2444   43.3426    6.2594 C.ar    1  UNL1        0.0045
     24 C          16.0714   34.4937    8.3301 C.3     1  UNL1        0.2525
     25 O          14.9223   34.2779    9.1377 O.3     1  UNL1       -0.4714
     26 C           9.4575   40.7817   10.5250 C.3     1  UNL1        0.1292
     27 C           9.5461   41.1773   11.9905 C.3     1  UNL1        0.0264
     28 C           7.1275   41.4947   11.4771 C.3     1  UNL1        0.0001
     29 C           8.2493   41.8225   12.4445 C.3     1  UNL1        0.0021
@<TRIPOS>BOND
     1    28    29    1
     2    29    27    1
     3    27    26    1
     4    26    11    1
     5     1    15    1
     6     1     2   ar
     7    14    18    1
     8    19    20   ar
     9    21    22   ar
    10    23    18   ar
    11     3     4   ar
    12     5     6   ar
    13     6    25    1
    14    24    25    1
    15     7     8   ar
    16     9    13   ar
    17     9     4   ar
    18    10    11   ar
    19    10     2   ar
    20    11    12   ar
    21    15    14   am
    22     1    12   ar
    23    14    16    2
    24    18    19   ar
    25    20    21   ar
    26    22    23   ar
    27     2     3   ar
    28     4     5   ar
    29     6     7   ar
    30     8     9   ar
    31    10    13   ar
    32    15    17    1
