@<TRIPOS>MOLECULE
MolPort-001-630-073 2865909 CHEMBL1306485 CSSS00132429918 MCULE-4256763631 PubChem-2219062 ZINC000002865909 ZINC02865909
 23 24 0 0 0
SMALL
GASTEIGER

@<TRIPOS>ATOM
      1 C          12.1053   42.0048    7.0176 C.2     1  UNL1        0.2729
      2 N          12.7560   42.5798    5.8802 N.am    1  UNL1       -0.2485
      3 O          12.5397   42.2007    8.1835 O.2     1  UNL1       -0.2706
      4 H          12.3818   42.3802    4.9917 H       1  UNL1        0.1579
      5 C          13.9101   43.4234    5.9387 C.ar    1  UNL1        0.2617
      6 N          15.8491   44.1031    6.3261 N.ar    1  UNL1       -0.1497
      7 N          15.2012   45.0828    5.7199 N.ar    1  UNL1       -0.0438
      8 N          13.9659   44.6842    5.4620 N.ar    1  UNL1       -0.0918
      9 N          15.0795   43.0391    6.4812 N.ar    1  UNL1       -0.1137
     10 C          17.2391   44.1810    6.7412 C.3     1  UNL1        0.1514
     11 C          17.3835   43.6935    8.1734 C.3     1  UNL1        0.0283
     12 C          17.1234   41.4174    9.1565 C.3     1  UNL1        0.0001
     13 C          17.9273   42.2764    8.1986 C.3     1  UNL1        0.0021
     14 C          10.9210   41.1298    6.8159 C.3     1  UNL1        0.2897
     15 O           9.7354   41.9118    6.8761 O.3     1  UNL1       -0.4656
     16 C           8.7866   41.7664    7.8912 C.ar    1  UNL1        0.1390
     17 C           7.4633   41.4785    7.5447 C.ar    1  UNL1        0.0378
     18 C           6.4911   41.3274    8.5368 C.ar    1  UNL1        0.0142
     19 C           6.8327   41.4629    9.8858 C.ar    1  UNL1        0.0539
     20 C           8.1614   41.7524   10.2425 C.ar    1  UNL1       -0.0083
     21 C           8.5670   41.9047   11.6682 C.3     1  UNL1        0.0320
     22 C           9.1301   41.9026    9.2455 C.ar    1  UNL1        0.0335
     23 CL          5.5761   41.2642   11.0976 Cl      1  UNL1       -0.0826
@<TRIPOS>BOND
     1    12    13    1
     2    13    11    1
     3    11    10    1
     4    10     6    1
     5     5     8   ar
     6     5     2    1
     7    14     1    1
     8    14    15    1
     9    16    15    1
    10    17    18   ar
    11    19    23    1
    12    19    20   ar
    13    21    20    1
    14    22    16   ar
    15     6     7   ar
    16     6     9   ar
    17     2     1   am
    18     5     9   ar
    19     1     3    2
    20    16    17   ar
    21    18    19   ar
    22    20    22   ar
    23     7     8   ar
    24     2     4    1
@<TRIPOS>MOLECULE
MolPort-001-630-073 2865909 CHEMBL1306485 CSSS00132429918 MCULE-4256763631 PubChem-2219062 ZINC000002865909 ZINC02865909
 23 24 0 0 0
SMALL
GASTEIGER

@<TRIPOS>ATOM
      1 C          11.8397   41.9406    6.8233 C.2     1  UNL1        0.2729
      2 N          12.6486   43.0430    7.2454 N.am    1  UNL1       -0.2485
      3 O          12.0826   41.3294    5.7491 O.2     1  UNL1       -0.2706
      4 H          12.4028   43.4933    8.0858 H       1  UNL1        0.1579
      5 C          13.7880   43.5393    6.5367 C.ar    1  UNL1        0.2617
      6 N          15.7704   43.9353    6.0028 N.ar    1  UNL1       -0.1497
      7 N          14.9958   44.5174    5.1039 N.ar    1  UNL1       -0.0438
      8 N          13.7303   44.2870    5.4153 N.ar    1  UNL1       -0.0918
      9 N          15.0561   43.3052    6.9199 N.ar    1  UNL1       -0.1137
     10 C          17.2225   43.9632    5.9664 C.3     1  UNL1        0.1514
     11 C          17.7812   43.8627    7.3761 C.3     1  UNL1        0.0283
     12 C          17.3337   41.9137    8.8647 C.3     1  UNL1        0.0001
     13 C          18.1552   42.4269    7.6970 C.3     1  UNL1        0.0021
     14 C          10.6702   41.5361    7.6464 C.3     1  UNL1        0.2897
     15 O          11.0809   41.3391    8.9929 O.3     1  UNL1       -0.4656
     16 C          11.6172   40.1323    9.4491 C.ar    1  UNL1        0.1390
     17 C          11.0991   38.9317    8.9550 C.ar    1  UNL1        0.0378
     18 C          11.6141   37.7084    9.3917 C.ar    1  UNL1        0.0142
     19 C          12.6525   37.6737   10.3274 C.ar    1  UNL1        0.0539
     20 C          13.1789   38.8768   10.8291 C.ar    1  UNL1       -0.0083
     21 C          14.2854   38.8838   11.8271 C.3     1  UNL1        0.0320
     22 C          12.6598   40.0980   10.3886 C.ar    1  UNL1        0.0335
     23 CL         13.2673   36.1118   10.8466 Cl      1  UNL1       -0.0826
@<TRIPOS>BOND
     1    12    13    1
     2    13    11    1
     3    11    10    1
     4    10     6    1
     5     5     8   ar
     6     5     2    1
     7    14     1    1
     8    14    15    1
     9    16    15    1
    10    17    18   ar
    11    19    23    1
    12    19    20   ar
    13    21    20    1
    14    22    16   ar
    15     6     7   ar
    16     6     9   ar
    17     2     1   am
    18     5     9   ar
    19     1     3    2
    20    16    17   ar
    21    18    19   ar
    22    20    22   ar
    23     7     8   ar
    24     2     4    1
@<TRIPOS>MOLECULE
MolPort-001-630-073 2865909 CHEMBL1306485 CSSS00132429918 MCULE-4256763631 PubChem-2219062 ZINC000002865909 ZINC02865909
 23 24 0 0 0
SMALL
GASTEIGER

@<TRIPOS>ATOM
      1 C          10.9618   40.9264    6.2787 C.2     1  UNL1        0.2729
      2 N          11.6030   42.1810    6.0281 N.am    1  UNL1       -0.2485
      3 O          11.5789   39.9803    6.8360 O.2     1  UNL1       -0.2706
      4 H          11.0770   42.8793    5.5755 H       1  UNL1        0.1579
      5 C          12.9519   42.4955    6.3867 C.ar    1  UNL1        0.2617
      6 N          14.7493   43.5395    6.6120 N.ar    1  UNL1       -0.1497
      7 N          14.9146   42.3468    7.1573 N.ar    1  UNL1       -0.0438
      8 N          13.7920   41.6579    7.0291 N.ar    1  UNL1       -0.0918
      9 N          13.5306   43.6799    6.1189 N.ar    1  UNL1       -0.1137
     10 C          15.7716   44.5715    6.5864 C.3     1  UNL1        0.1514
     11 C          17.0736   44.0021    6.0477 C.3     1  UNL1        0.0283
     12 C          17.5301   43.9126    8.4969 C.3     1  UNL1        0.0001
     13 C          18.1499   44.0364    7.1177 C.3     1  UNL1        0.0021
     14 C           9.5569   40.7239    5.8382 C.3     1  UNL1        0.2897
     15 O           8.9033   41.9823    5.7377 O.3     1  UNL1       -0.4656
     16 C           7.8483   42.3533    6.5752 C.ar    1  UNL1        0.1390
     17 C           7.0070   43.3980    6.1818 C.ar    1  UNL1        0.0378
     18 C           5.9434   43.7926    6.9974 C.ar    1  UNL1        0.0142
     19 C           5.7106   43.1462    8.2152 C.ar    1  UNL1        0.0539
     20 C           6.5523   42.0947    8.6181 C.ar    1  UNL1       -0.0083
     21 C           6.3389   41.3799    9.9079 C.3     1  UNL1        0.0320
     22 C           7.6151   41.7040    7.7979 C.ar    1  UNL1        0.0335
     23 CL          4.3611   43.6775    9.2070 Cl      1  UNL1       -0.0826
@<TRIPOS>BOND
     1    12    13    1
     2    13    11    1
     3    11    10    1
     4    10     6    1
     5     5     8   ar
     6     5     2    1
     7    14     1    1
     8    14    15    1
     9    16    15    1
    10    17    18   ar
    11    19    23    1
    12    19    20   ar
    13    21    20    1
    14    22    16   ar
    15     6     7   ar
    16     6     9   ar
    17     2     1   am
    18     5     9   ar
    19     1     3    2
    20    16    17   ar
    21    18    19   ar
    22    20    22   ar
    23     7     8   ar
    24     2     4    1
@<TRIPOS>MOLECULE
MolPort-001-630-073 2865909 CHEMBL1306485 CSSS00132429918 MCULE-4256763631 PubChem-2219062 ZINC000002865909 ZINC02865909
 23 24 0 0 0
SMALL
GASTEIGER

@<TRIPOS>ATOM
      1 C          10.2782   42.9389   10.1709 C.2     1  UNL1        0.2729
      2 N          10.7358   41.6461    9.7619 N.am    1  UNL1       -0.2485
      3 O          11.0310   43.9465   10.1043 O.2     1  UNL1       -0.2706
      4 H          10.1094   40.8918    9.8505 H       1  UNL1        0.1579
      5 C          12.0362   41.3688    9.2337 C.ar    1  UNL1        0.2617
      6 N          14.0084   40.6920    9.0798 N.ar    1  UNL1       -0.1497
      7 N          13.6956   41.2612    7.9287 N.ar    1  UNL1       -0.0438
      8 N          12.4501   41.7036    7.9941 N.ar    1  UNL1       -0.0918
      9 N          12.9957   40.7320    9.9289 N.ar    1  UNL1       -0.1137
     10 C          15.2941   40.0764    9.3606 C.3     1  UNL1        0.1514
     11 C          15.0967   38.7983   10.1587 C.3     1  UNL1        0.0283
     12 C          17.4050   39.5349   10.7451 C.3     1  UNL1        0.0001
     13 C          16.3660   38.4419   10.9113 C.3     1  UNL1        0.0021
     14 C           8.9051   43.0870   10.7201 C.3     1  UNL1        0.2897
     15 O           8.2777   41.8130   10.7839 O.3     1  UNL1       -0.4656
     16 C           6.9481   41.6073   10.4075 C.ar    1  UNL1        0.1390
     17 C           6.6415   41.4752    9.0501 C.ar    1  UNL1        0.0378
     18 C           5.3213   41.2688    8.6418 C.ar    1  UNL1        0.0142
     19 C           4.2941   41.1926    9.5874 C.ar    1  UNL1        0.0539
     20 C           4.5942   41.3245   10.9545 C.ar    1  UNL1       -0.0083
     21 C           3.5293   41.2494   11.9939 C.3     1  UNL1        0.0320
     22 C           5.9171   41.5309   11.3573 C.ar    1  UNL1        0.0335
     23 CL          2.6497   40.9320    9.0262 Cl      1  UNL1       -0.0826
@<TRIPOS>BOND
     1    12    13    1
     2    13    11    1
     3    11    10    1
     4    10     6    1
     5     5     8   ar
     6     5     2    1
     7    14     1    1
     8    14    15    1
     9    16    15    1
    10    17    18   ar
    11    19    23    1
    12    19    20   ar
    13    21    20    1
    14    22    16   ar
    15     6     7   ar
    16     6     9   ar
    17     2     1   am
    18     5     9   ar
    19     1     3    2
    20    16    17   ar
    21    18    19   ar
    22    20    22   ar
    23     7     8   ar
    24     2     4    1
@<TRIPOS>MOLECULE
MolPort-001-630-073 2865909 CHEMBL1306485 CSSS00132429918 MCULE-4256763631 PubChem-2219062 ZINC000002865909 ZINC02865909
 23 24 0 0 0
SMALL
GASTEIGER

@<TRIPOS>ATOM
      1 C          12.4992   40.3207   10.5234 C.2     1  UNL1        0.2729
      2 N          11.6088   41.1027    9.7212 N.am    1  UNL1       -0.2485
      3 O          12.1691   39.9380   11.6771 O.2     1  UNL1       -0.2706
      4 H          11.9257   41.3871    8.8336 H       1  UNL1        0.1579
      5 C          10.2922   41.5020   10.1138 C.ar    1  UNL1        0.2617
      6 N           8.2154   41.7438   10.1210 N.ar    1  UNL1       -0.1497
      7 N           8.6885   42.3628   11.1887 N.ar    1  UNL1       -0.0438
      8 N          10.0050   42.2301   11.2125 N.ar    1  UNL1       -0.0918
      9 N           9.1856   41.1846    9.4179 N.ar    1  UNL1       -0.1137
     10 C           6.8045   41.6665    9.7834 C.3     1  UNL1        0.1514
     11 C           6.3636   42.9450    9.0903 C.3     1  UNL1        0.0283
     12 C           6.9032   43.6715    6.7674 C.3     1  UNL1        0.0001
     13 C           6.1158   42.6896    7.6145 C.3     1  UNL1        0.0021
     14 C          13.8505   39.9884   10.0015 C.3     1  UNL1        0.2897
     15 O          13.8845   40.2029    8.5967 O.3     1  UNL1       -0.4656
     16 C          14.5391   41.2919    8.0156 C.ar    1  UNL1        0.1390
     17 C          13.8985   42.0008    6.9952 C.ar    1  UNL1        0.0378
     18 C          14.5269   43.0944    6.3940 C.ar    1  UNL1        0.0142
     19 C          15.8027   43.4899    6.8073 C.ar    1  UNL1        0.0539
     20 C          16.4536   42.7821    7.8329 C.ar    1  UNL1       -0.0083
     21 C          17.8132   43.1709    8.3026 C.3     1  UNL1        0.0320
     22 C          15.8201   41.6886    8.4309 C.ar    1  UNL1        0.0335
     23 CL         16.5528   44.8710    6.0217 Cl      1  UNL1       -0.0826
@<TRIPOS>BOND
     1    12    13    1
     2    13    11    1
     3    11    10    1
     4    10     6    1
     5     5     8   ar
     6     5     2    1
     7    14     1    1
     8    14    15    1
     9    16    15    1
    10    17    18   ar
    11    19    23    1
    12    19    20   ar
    13    21    20    1
    14    22    16   ar
    15     6     7   ar
    16     6     9   ar
    17     2     1   am
    18     5     9   ar
    19     1     3    2
    20    16    17   ar
    21    18    19   ar
    22    20    22   ar
    23     7     8   ar
    24     2     4    1
@<TRIPOS>MOLECULE
MolPort-001-630-073 2865909 CHEMBL1306485 CSSS00132429918 MCULE-4256763631 PubChem-2219062 ZINC000002865909 ZINC02865909
 23 24 0 0 0
SMALL
GASTEIGER

@<TRIPOS>ATOM
      1 C          11.5665   40.1807   10.4587 C.2     1  UNL1        0.2729
      2 N          10.8743   41.3134   10.9931 N.am    1  UNL1       -0.2485
      3 O          10.9540   39.1159   10.1803 O.2     1  UNL1       -0.2706
      4 H          11.4065   42.1137   11.2067 H       1  UNL1        0.1579
      5 C           9.4662   41.3690   11.2400 C.ar    1  UNL1        0.2617
      6 N           7.4051   41.5271   10.9263 N.ar    1  UNL1       -0.1497
      7 N           7.5954   41.3650   12.2242 N.ar    1  UNL1       -0.0438
      8 N           8.8942   41.2635   12.4572 N.ar    1  UNL1       -0.0918
      9 N           8.5513   41.5316   10.2673 N.ar    1  UNL1       -0.1137
     10 C           6.0980   41.6545   10.3050 C.3     1  UNL1        0.1514
     11 C           5.0117   41.6338   11.3676 C.3     1  UNL1        0.0283
     12 C           3.7637   41.6256    9.2096 C.3     1  UNL1        0.0001
     13 C           3.6380   41.6381   10.7214 C.3     1  UNL1        0.0021
     14 C          13.0387   40.2490   10.2662 C.3     1  UNL1        0.2897
     15 O          13.3376   40.2537    8.8765 O.3     1  UNL1       -0.4656
     16 C          14.2209   41.1686    8.2980 C.ar    1  UNL1        0.1390
     17 C          15.5353   41.2313    8.7695 C.ar    1  UNL1        0.0378
     18 C          16.4425   42.1358    8.2116 C.ar    1  UNL1        0.0142
     19 C          16.0439   42.9870    7.1764 C.ar    1  UNL1        0.0539
     20 C          14.7236   42.9300    6.6967 C.ar    1  UNL1       -0.0083
     21 C          14.2587   43.8195    5.5953 C.3     1  UNL1        0.0320
     22 C          13.8201   42.0230    7.2587 C.ar    1  UNL1        0.0335
     23 CL         17.2198   44.1075    6.5066 Cl      1  UNL1       -0.0826
@<TRIPOS>BOND
     1    12    13    1
     2    13    11    1
     3    11    10    1
     4    10     6    1
     5     5     8   ar
     6     5     2    1
     7    14     1    1
     8    14    15    1
     9    16    15    1
    10    17    18   ar
    11    19    23    1
    12    19    20   ar
    13    21    20    1
    14    22    16   ar
    15     6     7   ar
    16     6     9   ar
    17     2     1   am
    18     5     9   ar
    19     1     3    2
    20    16    17   ar
    21    18    19   ar
    22    20    22   ar
    23     7     8   ar
    24     2     4    1
@<TRIPOS>MOLECULE
MolPort-001-630-073 2865909 CHEMBL1306485 CSSS00132429918 MCULE-4256763631 PubChem-2219062 ZINC000002865909 ZINC02865909
 23 24 0 0 0
SMALL
GASTEIGER

@<TRIPOS>ATOM
      1 C          10.3748   41.2924    6.2508 C.2     1  UNL1        0.2729
      2 N           9.6366   40.5471    7.2241 N.am    1  UNL1       -0.2485
      3 O           9.7865   41.9662    5.3641 O.2     1  UNL1       -0.2706
      4 H          10.1488   40.0261    7.8839 H       1  UNL1        0.1579
      5 C           8.2090   40.5033    7.3094 C.ar    1  UNL1        0.2617
      6 N           6.2549   40.8115    7.9861 N.ar    1  UNL1       -0.1497
      7 N           6.1810   40.0854    6.8842 N.ar    1  UNL1       -0.0438
      8 N           7.4054   39.8699    6.4303 N.ar    1  UNL1       -0.0918
      9 N           7.5087   41.1017    8.2897 N.ar    1  UNL1       -0.1137
     10 C           5.0999   41.2559    8.7471 C.3     1  UNL1        0.1514
     11 C           5.2988   42.6910    9.2059 C.3     1  UNL1        0.0283
     12 C           4.2127   44.5371    7.9303 C.3     1  UNL1        0.0001
     13 C           4.0231   43.4909    9.0125 C.3     1  UNL1        0.0021
     14 C          11.8601   41.2381    6.2627 C.3     1  UNL1        0.2897
     15 O          12.3858   42.5502    6.1119 O.3     1  UNL1       -0.4656
     16 C          13.7223   42.8620    6.3735 C.ar    1  UNL1        0.1390
     17 C          14.3361   43.8804    5.6386 C.ar    1  UNL1        0.0378
     18 C          15.6715   44.2156    5.8767 C.ar    1  UNL1        0.0142
     19 C          16.4066   43.5353    6.8522 C.ar    1  UNL1        0.0539
     20 C          15.7965   42.5098    7.5955 C.ar    1  UNL1       -0.0083
     21 C          16.5444   41.7603    8.6440 C.3     1  UNL1        0.0320
     22 C          14.4599   42.1785    7.3531 C.ar    1  UNL1        0.0335
     23 CL         18.0826   43.9920    7.1158 Cl      1  UNL1       -0.0826
@<TRIPOS>BOND
     1    12    13    1
     2    13    11    1
     3    11    10    1
     4    10     6    1
     5     5     8   ar
     6     5     2    1
     7    14     1    1
     8    14    15    1
     9    16    15    1
    10    17    18   ar
    11    19    23    1
    12    19    20   ar
    13    21    20    1
    14    22    16   ar
    15     6     7   ar
    16     6     9   ar
    17     2     1   am
    18     5     9   ar
    19     1     3    2
    20    16    17   ar
    21    18    19   ar
    22    20    22   ar
    23     7     8   ar
    24     2     4    1
@<TRIPOS>MOLECULE
MolPort-001-630-073 2865909 CHEMBL1306485 CSSS00132429918 MCULE-4256763631 PubChem-2219062 ZINC000002865909 ZINC02865909
 23 24 0 0 0
SMALL
GASTEIGER

@<TRIPOS>ATOM
      1 C          11.2007   40.9270    7.2474 C.2     1  UNL1        0.2729
      2 N          11.8475   42.1293    7.6763 N.am    1  UNL1       -0.2485
      3 O          11.8123   40.0708    6.5550 O.2     1  UNL1       -0.2706
      4 H          11.3163   42.7701    8.2020 H       1  UNL1        0.1579
      5 C          13.2091   42.4690    7.3977 C.ar    1  UNL1        0.2617
      6 N          14.9007   43.5477    6.8089 N.ar    1  UNL1       -0.1497
      7 N          15.3112   42.3559    7.2064 N.ar    1  UNL1       -0.0438
      8 N          14.2609   41.6452    7.5847 N.ar    1  UNL1       -0.0918
      9 N          13.5881   43.6662    6.9153 N.ar    1  UNL1       -0.1137
     10 C          15.7870   44.6002    6.3426 C.3     1  UNL1        0.1514
     11 C          16.9967   43.9942    5.6506 C.3     1  UNL1        0.0283
     12 C          18.3017   44.2701    7.7567 C.3     1  UNL1        0.0001
     13 C          17.8944   43.3030    6.6610 C.3     1  UNL1        0.0021
     14 C           9.7721   40.7041    7.5914 C.3     1  UNL1        0.2897
     15 O           9.6809   40.0807    8.8657 O.3     1  UNL1       -0.4656
     16 C          10.7893   39.5397    9.5219 C.ar    1  UNL1        0.1390
     17 C          11.5807   40.3755   10.3152 C.ar    1  UNL1        0.0378
     18 C          12.6959   39.8645   10.9841 C.ar    1  UNL1        0.0142
     19 C          13.0311   38.5122   10.8661 C.ar    1  UNL1        0.0539
     20 C          12.2402   37.6651   10.0701 C.ar    1  UNL1       -0.0083
     21 C          12.5628   36.2184    9.9178 C.3     1  UNL1        0.0320
     22 C          11.1254   38.1819    9.4030 C.ar    1  UNL1        0.0335
     23 CL         14.4424   37.9154   11.7257 Cl      1  UNL1       -0.0826
@<TRIPOS>BOND
     1    12    13    1
     2    13    11    1
     3    11    10    1
     4    10     6    1
     5     5     8   ar
     6     5     2    1
     7    14     1    1
     8    14    15    1
     9    16    15    1
    10    17    18   ar
    11    19    23    1
    12    19    20   ar
    13    21    20    1
    14    22    16   ar
    15     6     7   ar
    16     6     9   ar
    17     2     1   am
    18     5     9   ar
    19     1     3    2
    20    16    17   ar
    21    18    19   ar
    22    20    22   ar
    23     7     8   ar
    24     2     4    1
@<TRIPOS>MOLECULE
MolPort-001-630-073 2865909 CHEMBL1306485 CSSS00132429918 MCULE-4256763631 PubChem-2219062 ZINC000002865909 ZINC02865909
 23 24 0 0 0
SMALL
GASTEIGER

@<TRIPOS>ATOM
      1 C           9.8397   41.3419    8.1242 C.2     1  UNL1        0.2729
      2 N          11.1621   40.8277    8.3106 N.am    1  UNL1       -0.2485
      3 O           9.6269   42.3351    7.3795 O.2     1  UNL1       -0.2706
      4 H          11.2712   40.0592    8.9162 H       1  UNL1        0.1579
      5 C          12.3374   41.3478    7.6819 C.ar    1  UNL1        0.2617
      6 N          14.2842   42.0561    7.4002 N.ar    1  UNL1       -0.1497
      7 N          13.6791   42.0872    6.2255 N.ar    1  UNL1       -0.0438
      8 N          12.4399   41.6457    6.3702 N.ar    1  UNL1       -0.0918
      9 N          13.4818   41.5946    8.3443 N.ar    1  UNL1       -0.1137
     10 C          15.6653   42.4526    7.6150 C.3     1  UNL1        0.1514
     11 C          15.9905   43.6811    6.7815 C.3     1  UNL1        0.0283
     12 C          17.8991   43.7815    8.3820 C.3     1  UNL1        0.0001
     13 C          17.4447   44.0763    6.9649 C.3     1  UNL1        0.0021
     14 C           8.7045   40.7177    8.8528 C.3     1  UNL1        0.2897
     15 O           8.0946   41.6822    9.7003 O.3     1  UNL1       -0.4656
     16 C           6.9562   42.4014    9.3279 C.ar    1  UNL1        0.1390
     17 C           7.1122   43.6699    8.7617 C.ar    1  UNL1        0.0378
     18 C           5.9932   44.4141    8.3789 C.ar    1  UNL1        0.0142
     19 C           4.7067   43.8969    8.5589 C.ar    1  UNL1        0.0539
     20 C           4.5415   42.6219    9.1277 C.ar    1  UNL1       -0.0083
     21 C           3.1882   42.0344    9.3366 C.3     1  UNL1        0.0320
     22 C           5.6647   41.8817    9.5088 C.ar    1  UNL1        0.0335
     23 CL          3.3303   44.8695    8.0623 Cl      1  UNL1       -0.0826
@<TRIPOS>BOND
     1    12    13    1
     2    13    11    1
     3    11    10    1
     4    10     6    1
     5     5     8   ar
     6     5     2    1
     7    14     1    1
     8    14    15    1
     9    16    15    1
    10    17    18   ar
    11    19    23    1
    12    19    20   ar
    13    21    20    1
    14    22    16   ar
    15     6     7   ar
    16     6     9   ar
    17     2     1   am
    18     5     9   ar
    19     1     3    2
    20    16    17   ar
    21    18    19   ar
    22    20    22   ar
    23     7     8   ar
    24     2     4    1
@<TRIPOS>MOLECULE
MolPort-001-630-073 2865909 CHEMBL1306485 CSSS00132429918 MCULE-4256763631 PubChem-2219062 ZINC000002865909 ZINC02865909
 23 24 0 0 0
SMALL
GASTEIGER

@<TRIPOS>ATOM
      1 C          10.0246   41.4615    7.9935 C.2     1  UNL1        0.2729
      2 N           9.0503   41.2993    9.0290 N.am    1  UNL1       -0.2485
      3 O           9.6820   41.7617    6.8192 O.2     1  UNL1       -0.2706
      4 H           9.3741   41.0491    9.9244 H       1  UNL1        0.1579
      5 C           7.6404   41.4739    8.8593 C.ar    1  UNL1        0.2617
      6 N           5.7002   42.2278    9.0561 N.ar    1  UNL1       -0.1497
      7 N           5.6482   41.2233    8.1986 N.ar    1  UNL1       -0.0438
      8 N           6.8639   40.7210    8.0531 N.ar    1  UNL1       -0.0918
      9 N           6.9320   42.4249    9.4943 N.ar    1  UNL1       -0.1137
     10 C           4.5512   43.0286    9.4422 C.3     1  UNL1        0.1514
     11 C           3.3787   42.1254    9.7875 C.3     1  UNL1        0.0283
     12 C           4.0198   40.4246   11.4936 C.3     1  UNL1        0.0001
     13 C           3.3891   41.7857   11.2670 C.3     1  UNL1        0.0021
     14 C          11.4608   41.2330    8.3004 C.3     1  UNL1        0.2897
     15 O          12.2259   41.3426    7.1075 O.3     1  UNL1       -0.4656
     16 C          13.4616   41.9929    7.0610 C.ar    1  UNL1        0.1390
     17 C          13.6333   43.0572    6.1710 C.ar    1  UNL1        0.0378
     18 C          14.8572   43.7276    6.1009 C.ar    1  UNL1        0.0142
     19 C          15.9219   43.3402    6.9201 C.ar    1  UNL1        0.0539
     20 C          15.7572   42.2707    7.8177 C.ar    1  UNL1       -0.0083
     21 C          16.8664   41.8264    8.7079 C.3     1  UNL1        0.0320
     22 C          14.5304   41.6034    7.8837 C.ar    1  UNL1        0.0335
     23 CL         17.4417   44.2131    6.7962 Cl      1  UNL1       -0.0826
@<TRIPOS>BOND
     1    12    13    1
     2    13    11    1
     3    11    10    1
     4    10     6    1
     5     5     8   ar
     6     5     2    1
     7    14     1    1
     8    14    15    1
     9    16    15    1
    10    17    18   ar
    11    19    23    1
    12    19    20   ar
    13    21    20    1
    14    22    16   ar
    15     6     7   ar
    16     6     9   ar
    17     2     1   am
    18     5     9   ar
    19     1     3    2
    20    16    17   ar
    21    18    19   ar
    22    20    22   ar
    23     7     8   ar
    24     2     4    1
