@<TRIPOS>MOLECULE
MolPort-029-901-089 96161248 CSSS02125485854 MCULE-8330030179 PubChem-72910357 ZINC000096161248
 26 28 0 0 0
SMALL
GASTEIGER

@<TRIPOS>ATOM
      1 C          12.7100   42.0881    6.3740 C.2     1  UNL1        0.3045
      2 O          12.4631   42.0191    7.6086 O.2     1  UNL1       -0.2525
      3 N          13.9126   42.7143    5.9121 N.am    1  UNL1       -0.2865
      4 N          11.7990   41.5440    5.4110 N.am    1  UNL1       -0.2682
      5 H          14.0625   42.7470    4.9396 H       1  UNL1        0.1511
      6 H          12.0552   41.6306    4.4644 H       1  UNL1        0.1564
      7 C          16.1316   43.7556    5.9714 C.3     1  UNL1        0.1504
      8 C          17.3118   43.3650    6.8284 C.3     1  UNL1        0.1038
      9 C          17.4844   42.4064    8.9529 C.3     1  UNL1        0.0897
     10 C          15.4608   42.3049    7.7818 C.3     1  UNL1        0.0946
     11 C          14.9343   43.3082    6.7716 C.3     1  UNL1        0.1174
     12 N          16.9097   42.2197    7.6329 N.3     1  UNL1       -0.2679
     13 C          14.7489   45.4750    5.8233 C.3     1  UNL1        0.1741
     14 O          16.1038   45.1403    5.8004 O.3     1  UNL1       -0.3504
     15 C          10.5534   40.8868    5.6810 C.ar    1  UNL1        0.0546
     16 C           9.4360   41.6671    5.9973 C.ar    1  UNL1        0.0516
     17 C           8.2008   41.0704    6.2710 C.ar    1  UNL1        0.1396
     18 C           8.0853   39.6721    6.2235 C.ar    1  UNL1        0.0370
     19 C           9.1953   38.8852    5.9080 C.ar    1  UNL1        0.0044
     20 C          10.4250   39.4903    5.6379 C.ar    1  UNL1        0.0149
     21 O           7.1085   41.8875    6.5817 O.3     1  UNL1       -0.4791
     22 C           7.0161   42.6412    7.7862 C.3     1  UNL1        0.1659
     23 C           6.8590   44.1204    7.4675 C.3     1  UNL1        0.0435
     24 C           5.4270   44.4780    7.7970 C.3     1  UNL1        0.0038
     25 C           5.0095   43.4911    8.8595 C.3     1  UNL1        0.0038
     26 C           5.7695   42.2213    8.5446 C.3     1  UNL1        0.0435
@<TRIPOS>BOND
     1    13    14    1
     2     7    14    1
     3     7     8    1
     4     8    12    1
     5     9    12    1
     6    10    12    1
     7    10    11    1
     8    11     3    1
     9    11     7    1
    10     1     4   am
    11    16    17   ar
    12    17    21    1
    13    22    21    1
    14    22    23    1
    15    23    24    1
    16    24    25    1
    17    25    26    1
    18    26    22    1
    19    18    19   ar
    20    20    15   ar
    21     3     1   am
    22     4    15    1
    23     1     2    2
    24    15    16   ar
    25    17    18   ar
    26    19    20   ar
    27     3     5    1
    28     4     6    1
@<TRIPOS>MOLECULE
MolPort-029-901-089 96161248 CSSS02125485854 MCULE-8330030179 PubChem-72910357 ZINC000096161248
 26 28 0 0 0
SMALL
GASTEIGER

@<TRIPOS>ATOM
      1 C          11.7482   41.4193    8.5414 C.2     1  UNL1        0.3045
      2 O          12.0461   42.5216    9.0762 O.2     1  UNL1       -0.2525
      3 N          12.5293   40.9097    7.4543 N.am    1  UNL1       -0.2865
      4 N          10.6287   40.6555    9.0071 N.am    1  UNL1       -0.2682
      5 H          12.2584   40.0464    7.0664 H       1  UNL1        0.1511
      6 H          10.4545   39.8034    8.5459 H       1  UNL1        0.1564
      7 C          14.6087   42.1111    7.9490 C.3     1  UNL1        0.1504
      8 C          15.0487   43.4531    7.4148 C.3     1  UNL1        0.1038
      9 C          14.6456   44.5718    5.4027 C.3     1  UNL1        0.0897
     10 C          13.2952   42.7669    6.0314 C.3     1  UNL1        0.0946
     11 C          13.6969   41.5712    6.8760 C.3     1  UNL1        0.1174
     12 N          13.9944   43.9431    6.5377 N.3     1  UNL1       -0.2679
     13 C          16.7792   42.1359    8.3712 C.3     1  UNL1        0.1741
     14 O          15.7142   41.2739    8.1046 O.3     1  UNL1       -0.3504
     15 C           9.7355   41.0018   10.0741 C.ar    1  UNL1        0.0546
     16 C           8.4195   41.3588    9.7604 C.ar    1  UNL1        0.0516
     17 C           7.5132   41.7071   10.7675 C.ar    1  UNL1        0.1396
     18 C           7.9328   41.6937   12.1070 C.ar    1  UNL1        0.0370
     19 C           9.2443   41.3380   12.4295 C.ar    1  UNL1        0.0044
     20 C          10.1426   40.9935   11.4167 C.ar    1  UNL1        0.0149
     21 O           6.2064   42.0564   10.4104 O.3     1  UNL1       -0.4791
     22 C           5.1121   41.1474   10.4708 C.3     1  UNL1        0.1659
     23 C           4.0970   41.6179   11.5018 C.3     1  UNL1        0.0435
     24 C           2.9031   42.1249   10.7244 C.3     1  UNL1        0.0038
     25 C           2.9339   41.3691    9.4187 C.3     1  UNL1        0.0038
     26 C           4.4000   41.1321    9.1299 C.3     1  UNL1        0.0435
@<TRIPOS>BOND
     1    13    14    1
     2     7    14    1
     3     7     8    1
     4     8    12    1
     5     9    12    1
     6    10    12    1
     7    10    11    1
     8    11     3    1
     9    11     7    1
    10     1     4   am
    11    16    17   ar
    12    17    21    1
    13    22    21    1
    14    22    23    1
    15    23    24    1
    16    24    25    1
    17    25    26    1
    18    26    22    1
    19    18    19   ar
    20    20    15   ar
    21     3     1   am
    22     4    15    1
    23     1     2    2
    24    15    16   ar
    25    17    18   ar
    26    19    20   ar
    27     3     5    1
    28     4     6    1
@<TRIPOS>MOLECULE
MolPort-029-901-089 96161248 CSSS02125485854 MCULE-8330030179 PubChem-72910357 ZINC000096161248
 26 28 0 0 0
SMALL
GASTEIGER

@<TRIPOS>ATOM
      1 C          12.5916   41.5117    6.2982 C.2     1  UNL1        0.3045
      2 O          12.9311   40.6053    7.1064 O.2     1  UNL1       -0.2525
      3 N          11.3545   41.4149    5.5829 N.am    1  UNL1       -0.2865
      4 N          13.4303   42.6528    6.0793 N.am    1  UNL1       -0.2682
      5 H          11.1316   42.1448    4.9609 H       1  UNL1        0.1511
      6 H          13.1031   43.3231    5.4368 H       1  UNL1        0.1564
      7 C          10.0091   39.7765    4.3511 C.3     1  UNL1        0.1504
      8 C           8.5248   39.5254    4.4691 C.3     1  UNL1        0.1038
      9 C           7.0144   39.7326    6.2406 C.3     1  UNL1        0.0897
     10 C           9.1053   40.7776    6.3544 C.3     1  UNL1        0.0946
     11 C          10.3974   40.3173    5.7041 C.3     1  UNL1        0.1174
     12 N           7.9997   40.4567    5.4580 N.3     1  UNL1       -0.2679
     13 C           9.8484   37.8814    3.2228 C.3     1  UNL1        0.1741
     14 O          10.6776   38.5767    4.1044 O.3     1  UNL1       -0.3504
     15 C          14.6960   42.9212    6.6977 C.ar    1  UNL1        0.0546
     16 C          15.1477   42.0621    7.7055 C.ar    1  UNL1        0.0516
     17 C          16.3745   42.2855    8.3394 C.ar    1  UNL1        0.1396
     18 C          17.1593   43.3839    7.9543 C.ar    1  UNL1        0.0370
     19 C          16.7167   44.2463    6.9488 C.ar    1  UNL1        0.0044
     20 C          15.4893   44.0160    6.3228 C.ar    1  UNL1        0.0149
     21 O          16.7893   41.4015    9.3412 O.3     1  UNL1       -0.4791
     22 C          16.3443   40.0514    9.4231 C.3     1  UNL1        0.1659
     23 C          17.2995   39.2365   10.2821 C.3     1  UNL1        0.0435
     24 C          16.5763   38.9621   11.5816 C.3     1  UNL1        0.0038
     25 C          15.1091   38.9989   11.2306 C.3     1  UNL1        0.0038
     26 C          14.9921   40.0114   10.1125 C.3     1  UNL1        0.0435
@<TRIPOS>BOND
     1    13    14    1
     2     7    14    1
     3     7     8    1
     4     8    12    1
     5     9    12    1
     6    10    12    1
     7    10    11    1
     8    11     3    1
     9    11     7    1
    10     1     4   am
    11    16    17   ar
    12    17    21    1
    13    22    21    1
    14    22    23    1
    15    23    24    1
    16    24    25    1
    17    25    26    1
    18    26    22    1
    19    18    19   ar
    20    20    15   ar
    21     3     1   am
    22     4    15    1
    23     1     2    2
    24    15    16   ar
    25    17    18   ar
    26    19    20   ar
    27     3     5    1
    28     4     6    1
@<TRIPOS>MOLECULE
MolPort-029-901-089 96161248 CSSS02125485854 MCULE-8330030179 PubChem-72910357 ZINC000096161248
 26 28 0 0 0
SMALL
GASTEIGER

@<TRIPOS>ATOM
      1 C           8.6454   42.6192    8.2884 C.2     1  UNL1        0.3045
      2 O           8.3976   42.3418    7.0836 O.2     1  UNL1       -0.2525
      3 N           9.9042   42.2577    8.8684 N.am    1  UNL1       -0.2865
      4 N           7.6795   43.2994    9.0994 N.am    1  UNL1       -0.2682
      5 H          10.0529   42.4926    9.8128 H       1  UNL1        0.1511
      6 H           7.9395   43.4866   10.0303 H       1  UNL1        0.1564
      7 C          10.8526   40.0707    8.2943 C.3     1  UNL1        0.1504
      8 C          12.2695   39.5943    8.5078 C.3     1  UNL1        0.1038
      9 C          14.3281   40.7001    8.5489 C.3     1  UNL1        0.0897
     10 C          12.3397   41.9165    8.7570 C.3     1  UNL1        0.0946
     11 C          10.9850   41.5675    8.1677 C.3     1  UNL1        0.1174
     12 N          13.0049   40.6774    9.1457 N.3     1  UNL1       -0.2679
     13 C           9.1778   38.8659    7.4984 C.3     1  UNL1        0.1741
     14 O          10.3416   39.5329    7.1124 O.3     1  UNL1       -0.3504
     15 C           6.3740   43.7361    8.6979 C.ar    1  UNL1        0.0546
     16 C           5.2575   43.2202    9.3650 C.ar    1  UNL1        0.0516
     17 C           3.9643   43.6145    9.0062 C.ar    1  UNL1        0.1396
     18 C           3.7899   44.5412    7.9662 C.ar    1  UNL1        0.0370
     19 C           4.8986   45.0619    7.2951 C.ar    1  UNL1        0.0044
     20 C           6.1861   44.6607    7.6594 C.ar    1  UNL1        0.0149
     21 O           2.8756   43.0754    9.6999 O.3     1  UNL1       -0.4791
     22 C           2.7979   41.7074   10.0875 C.3     1  UNL1        0.1659
     23 C           3.9690   40.9308    9.5045 C.3     1  UNL1        0.0435
     24 C           4.8938   40.6219   10.6604 C.3     1  UNL1        0.0038
     25 C           4.0051   40.5978   11.8797 C.3     1  UNL1        0.0038
     26 C           2.9147   41.6081   11.5981 C.3     1  UNL1        0.0435
@<TRIPOS>BOND
     1    13    14    1
     2     7    14    1
     3     7     8    1
     4     8    12    1
     5     9    12    1
     6    10    12    1
     7    10    11    1
     8    11     3    1
     9    11     7    1
    10     1     4   am
    11    16    17   ar
    12    17    21    1
    13    22    21    1
    14    22    23    1
    15    23    24    1
    16    24    25    1
    17    25    26    1
    18    26    22    1
    19    18    19   ar
    20    20    15   ar
    21     3     1   am
    22     4    15    1
    23     1     2    2
    24    15    16   ar
    25    17    18   ar
    26    19    20   ar
    27     3     5    1
    28     4     6    1
@<TRIPOS>MOLECULE
MolPort-029-901-089 96161248 CSSS02125485854 MCULE-8330030179 PubChem-72910357 ZINC000096161248
 26 28 0 0 0
SMALL
GASTEIGER

@<TRIPOS>ATOM
      1 C          12.1050   41.8518    6.2829 C.2     1  UNL1        0.3045
      2 O          12.1865   40.9293    7.1385 O.2     1  UNL1       -0.2525
      3 N          10.9212   41.9985    5.4899 N.am    1  UNL1       -0.2865
      4 N          13.1878   42.7696    6.0864 N.am    1  UNL1       -0.2682
      5 H          10.9030   42.7316    4.8330 H       1  UNL1        0.1511
      6 H          13.0561   43.4666    5.4037 H       1  UNL1        0.1564
      7 C           8.7442   41.6888    6.5746 C.3     1  UNL1        0.1504
      8 C           8.2381   40.4620    7.2948 C.3     1  UNL1        0.1038
      9 C           8.6545   38.1778    7.0271 C.3     1  UNL1        0.0897
     10 C          10.0953   39.7525    6.0673 C.3     1  UNL1        0.0946
     11 C           9.7385   41.1451    5.5798 C.3     1  UNL1        0.1174
     12 N           9.2951   39.4610    7.2520 N.3     1  UNL1       -0.2679
     13 C           7.1463   43.1930    6.8467 C.3     1  UNL1        0.1741
     14 O           7.6926   42.3176    5.9068 O.3     1  UNL1       -0.3504
     15 C          14.4432   42.7795    6.7794 C.ar    1  UNL1        0.0546
     16 C          14.7178   41.7518    7.6883 C.ar    1  UNL1        0.0516
     17 C          15.9277   41.7213    8.3897 C.ar    1  UNL1        0.1396
     18 C          16.8754   42.7340    8.1734 C.ar    1  UNL1        0.0370
     19 C          16.6102   43.7635    7.2676 C.ar    1  UNL1        0.0044
     20 C          15.3983   43.7863    6.5732 C.ar    1  UNL1        0.0149
     21 O          16.1627   40.6750    9.2882 O.3     1  UNL1       -0.4791
     22 C          15.2493   39.6017    9.4915 C.3     1  UNL1        0.1659
     23 C          15.9125   38.4956   10.2984 C.3     1  UNL1        0.0435
     24 C          15.2909   38.5414   11.6763 C.3     1  UNL1        0.0038
     25 C          13.9189   39.1346   11.4695 C.3     1  UNL1        0.0038
     26 C          14.0709   40.0963   10.3115 C.3     1  UNL1        0.0435
@<TRIPOS>BOND
     1    13    14    1
     2     7    14    1
     3     7     8    1
     4     8    12    1
     5     9    12    1
     6    10    12    1
     7    10    11    1
     8    11     3    1
     9    11     7    1
    10     1     4   am
    11    16    17   ar
    12    17    21    1
    13    22    21    1
    14    22    23    1
    15    23    24    1
    16    24    25    1
    17    25    26    1
    18    26    22    1
    19    18    19   ar
    20    20    15   ar
    21     3     1   am
    22     4    15    1
    23     1     2    2
    24    15    16   ar
    25    17    18   ar
    26    19    20   ar
    27     3     5    1
    28     4     6    1
@<TRIPOS>MOLECULE
MolPort-029-901-089 96161248 CSSS02125485854 MCULE-8330030179 PubChem-72910357 ZINC000096161248
 26 28 0 0 0
SMALL
GASTEIGER

@<TRIPOS>ATOM
      1 C          11.3198   41.9205    6.2782 C.2     1  UNL1        0.3045
      2 O          11.5991   40.8032    6.7915 O.2     1  UNL1       -0.2525
      3 N          12.3657   42.8229    5.8996 N.am    1  UNL1       -0.2865
      4 N           9.9577   42.3100    6.0624 N.am    1  UNL1       -0.2682
      5 H          12.1005   43.6849    5.5047 H       1  UNL1        0.1511
      6 H           9.8117   43.1946    5.6557 H       1  UNL1        0.1564
      7 C          14.2188   42.6664    7.4975 C.3     1  UNL1        0.1504
      8 C          15.5498   43.3770    7.4397 C.3     1  UNL1        0.1038
      9 C          16.8779   44.1208    5.6662 C.3     1  UNL1        0.0897
     10 C          14.6284   43.5872    5.3028 C.3     1  UNL1        0.0946
     11 C          13.7956   42.5641    6.0538 C.3     1  UNL1        0.1174
     12 N          15.5501   44.2114    6.2461 N.3     1  UNL1       -0.2679
     13 C          15.6719   41.3937    8.5739 C.3     1  UNL1        0.1741
     14 O          14.3819   41.3915    8.0409 O.3     1  UNL1       -0.3504
     15 C           8.7849   41.5469    6.3765 C.ar    1  UNL1        0.0546
     16 C           7.8923   42.0477    7.3305 C.ar    1  UNL1        0.0516
     17 C           6.7366   41.3371    7.6715 C.ar    1  UNL1        0.1396
     18 C           6.4722   40.1094    7.0443 C.ar    1  UNL1        0.0370
     19 C           7.3574   39.6021    6.0904 C.ar    1  UNL1        0.0044
     20 C           8.5097   40.3181    5.7578 C.ar    1  UNL1        0.0149
     21 O           5.8700   41.8744    8.6294 O.3     1  UNL1       -0.4791
     22 C           4.9642   41.0837    9.3923 C.3     1  UNL1        0.1659
     23 C           5.2370   41.2620   10.8783 C.3     1  UNL1        0.0435
     24 C           4.0948   42.0883   11.4256 C.3     1  UNL1        0.0038
     25 C           2.9311   41.8084   10.5067 C.3     1  UNL1        0.0038
     26 C           3.5467   41.5688    9.1455 C.3     1  UNL1        0.0435
@<TRIPOS>BOND
     1    13    14    1
     2     7    14    1
     3     7     8    1
     4     8    12    1
     5     9    12    1
     6    10    12    1
     7    10    11    1
     8    11     3    1
     9    11     7    1
    10     1     4   am
    11    16    17   ar
    12    17    21    1
    13    22    21    1
    14    22    23    1
    15    23    24    1
    16    24    25    1
    17    25    26    1
    18    26    22    1
    19    18    19   ar
    20    20    15   ar
    21     3     1   am
    22     4    15    1
    23     1     2    2
    24    15    16   ar
    25    17    18   ar
    26    19    20   ar
    27     3     5    1
    28     4     6    1
@<TRIPOS>MOLECULE
MolPort-029-901-089 96161248 CSSS02125485854 MCULE-8330030179 PubChem-72910357 ZINC000096161248
 26 28 0 0 0
SMALL
GASTEIGER

@<TRIPOS>ATOM
      1 C          11.2955   41.3910    7.0452 C.2     1  UNL1        0.3045
      2 O          10.8467   40.8166    8.0740 O.2     1  UNL1       -0.2525
      3 N          10.3972   41.8961    6.0504 N.am    1  UNL1       -0.2865
      4 N          12.7060   41.5515    6.8496 N.am    1  UNL1       -0.2682
      5 H          10.7925   42.3353    5.2630 H       1  UNL1        0.1511
      6 H          12.9869   42.0112    6.0255 H       1  UNL1        0.1564
      7 C           8.4341   42.0813    7.5078 C.3     1  UNL1        0.1504
      8 C           7.3281   41.0713    7.6990 C.3     1  UNL1        0.1038
      9 C           6.3782   39.4691    6.2872 C.3     1  UNL1        0.0897
     10 C           8.4502   40.4187    5.7563 C.3     1  UNL1        0.0946
     11 C           8.9398   41.8105    6.1132 C.3     1  UNL1        0.1174
     12 N           7.6336   39.9218    6.8586 N.3     1  UNL1       -0.2679
     13 C           6.6598   43.2212    8.1729 C.3     1  UNL1        0.1741
     14 O           7.9176   43.3751    7.5878 O.3     1  UNL1       -0.3504
     15 C          13.7514   41.1129    7.7277 C.ar    1  UNL1        0.0546
     16 C          14.8959   41.9068    7.8598 C.ar    1  UNL1        0.0516
     17 C          15.9428   41.5183    8.7023 C.ar    1  UNL1        0.1396
     18 C          15.8379   40.3188    9.4239 C.ar    1  UNL1        0.0370
     19 C          14.6988   39.5202    9.2987 C.ar    1  UNL1        0.0044
     20 C          13.6593   39.9157    8.4535 C.ar    1  UNL1        0.0149
     21 O          17.0688   42.3421    8.8064 O.3     1  UNL1       -0.4791
     22 C          17.1410   43.6410    8.2275 C.3     1  UNL1        0.1659
     23 C          18.4105   43.7756    7.4001 C.3     1  UNL1        0.0435
     24 C          17.9780   43.7688    5.9510 C.3     1  UNL1        0.0038
     25 C          16.5633   44.2937    5.9602 C.3     1  UNL1        0.0038
     26 C          15.9744   43.8292    7.2741 C.3     1  UNL1        0.0435
@<TRIPOS>BOND
     1    13    14    1
     2     7    14    1
     3     7     8    1
     4     8    12    1
     5     9    12    1
     6    10    12    1
     7    10    11    1
     8    11     3    1
     9    11     7    1
    10     1     4   am
    11    16    17   ar
    12    17    21    1
    13    22    21    1
    14    22    23    1
    15    23    24    1
    16    24    25    1
    17    25    26    1
    18    26    22    1
    19    18    19   ar
    20    20    15   ar
    21     3     1   am
    22     4    15    1
    23     1     2    2
    24    15    16   ar
    25    17    18   ar
    26    19    20   ar
    27     3     5    1
    28     4     6    1
@<TRIPOS>MOLECULE
MolPort-029-901-089 96161248 CSSS02125485854 MCULE-8330030179 PubChem-72910357 ZINC000096161248
 26 28 0 0 0
SMALL
GASTEIGER

@<TRIPOS>ATOM
      1 C          12.4511   42.0678    7.3743 C.2     1  UNL1        0.3045
      2 O          12.3786   42.2421    8.6210 O.2     1  UNL1       -0.2525
      3 N          11.2663   41.8130    6.6108 N.am    1  UNL1       -0.2865
      4 N          13.7128   42.1213    6.6970 N.am    1  UNL1       -0.2682
      5 H          11.3711   41.6810    5.6408 H       1  UNL1        0.1511
      6 H          13.6963   41.9787    5.7231 H       1  UNL1        0.1564
      7 C           9.6199   40.3555    7.6956 C.3     1  UNL1        0.1504
      8 C           8.1964   40.0915    7.2666 C.3     1  UNL1        0.1038
      9 C           6.6072   41.3904    6.1487 C.3     1  UNL1        0.0897
     10 C           8.8668   41.9970    6.0923 C.3     1  UNL1        0.0946
     11 C           9.9141   41.7338    7.1591 C.3     1  UNL1        0.1174
     12 N           7.9547   40.8588    6.0527 N.3     1  UNL1       -0.2679
     13 C           8.9021   41.4202    9.4960 C.3     1  UNL1        0.1741
     14 O           9.7062   40.3546    9.0884 O.3     1  UNL1       -0.3504
     15 C          14.9969   42.3609    7.2886 C.ar    1  UNL1        0.0546
     16 C          15.4500   41.4918    8.2871 C.ar    1  UNL1        0.0516
     17 C          16.6946   41.6873    8.8951 C.ar    1  UNL1        0.1396
     18 C          17.4959   42.7675    8.4931 C.ar    1  UNL1        0.0370
     19 C          17.0520   43.6398    7.4968 C.ar    1  UNL1        0.0044
     20 C          15.8068   43.4374    6.8968 C.ar    1  UNL1        0.0149
     21 O          17.1101   40.7940    9.8884 O.3     1  UNL1       -0.4791
     22 C          16.7300   39.4220    9.9119 C.3     1  UNL1        0.1659
     23 C          17.0210   38.8215   11.2791 C.3     1  UNL1        0.0435
     24 C          15.6812   38.6220   11.9514 C.3     1  UNL1        0.0038
     25 C          14.6947   38.4572   10.8214 C.3     1  UNL1        0.0038
     26 C          15.2309   39.3145    9.6960 C.3     1  UNL1        0.0435
@<TRIPOS>BOND
     1    13    14    1
     2     7    14    1
     3     7     8    1
     4     8    12    1
     5     9    12    1
     6    10    12    1
     7    10    11    1
     8    11     3    1
     9    11     7    1
    10     1     4   am
    11    16    17   ar
    12    17    21    1
    13    22    21    1
    14    22    23    1
    15    23    24    1
    16    24    25    1
    17    25    26    1
    18    26    22    1
    19    18    19   ar
    20    20    15   ar
    21     3     1   am
    22     4    15    1
    23     1     2    2
    24    15    16   ar
    25    17    18   ar
    26    19    20   ar
    27     3     5    1
    28     4     6    1
@<TRIPOS>MOLECULE
MolPort-029-901-089 96161248 CSSS02125485854 MCULE-8330030179 PubChem-72910357 ZINC000096161248
 26 28 0 0 0
SMALL
GASTEIGER

@<TRIPOS>ATOM
      1 C           8.6514   41.9342    7.5050 C.2     1  UNL1        0.3045
      2 O           8.7024   41.6320    8.7280 O.2     1  UNL1       -0.2525
      3 N           7.4157   42.3566    6.9165 N.am    1  UNL1       -0.2865
      4 N           9.8218   41.8634    6.6812 N.am    1  UNL1       -0.2682
      5 H           7.4227   42.5805    5.9578 H       1  UNL1        0.1511
      6 H           9.7111   42.1157    5.7360 H       1  UNL1        0.1564
      7 C           6.2641   43.4209    8.8014 C.3     1  UNL1        0.1504
      8 C           5.4618   42.7500    9.8906 C.3     1  UNL1        0.1038
      9 C           4.1720   40.8017    9.9430 C.3     1  UNL1        0.0897
     10 C           5.7001   41.1497    8.2050 C.3     1  UNL1        0.0946
     11 C           6.1454   42.4812    7.6280 C.3     1  UNL1        0.1174
     12 N           5.4954   41.3158    9.6400 N.3     1  UNL1       -0.2679
     13 C           4.3870   44.3629    8.1090 C.3     1  UNL1        0.1741
     14 O           5.6987   44.6568    8.4850 O.3     1  UNL1       -0.3504
     15 C          11.1373   41.4638    7.0886 C.ar    1  UNL1        0.0546
     16 C          12.1644   42.4138    7.0711 C.ar    1  UNL1        0.0516
     17 C          13.4641   42.0696    7.4570 C.ar    1  UNL1        0.1396
     18 C          13.7354   40.7553    7.8689 C.ar    1  UNL1        0.0370
     19 C          12.7163   39.8005    7.8902 C.ar    1  UNL1        0.0044
     20 C          11.4219   40.1534    7.5013 C.ar    1  UNL1        0.0149
     21 O          14.4613   43.0503    7.4259 O.3     1  UNL1       -0.4791
     22 C          15.8246   42.7671    7.1283 C.3     1  UNL1        0.1659
     23 C          16.6085   44.0626    6.9811 C.3     1  UNL1        0.0435
     24 C          17.4852   44.1726    8.2084 C.3     1  UNL1        0.0038
     25 C          17.7098   42.7504    8.6602 C.3     1  UNL1        0.0038
     26 C          16.4434   42.0099    8.2899 C.3     1  UNL1        0.0435
@<TRIPOS>BOND
     1    13    14    1
     2     7    14    1
     3     7     8    1
     4     8    12    1
     5     9    12    1
     6    10    12    1
     7    10    11    1
     8    11     3    1
     9    11     7    1
    10     1     4   am
    11    16    17   ar
    12    17    21    1
    13    22    21    1
    14    22    23    1
    15    23    24    1
    16    24    25    1
    17    25    26    1
    18    26    22    1
    19    18    19   ar
    20    20    15   ar
    21     3     1   am
    22     4    15    1
    23     1     2    2
    24    15    16   ar
    25    17    18   ar
    26    19    20   ar
    27     3     5    1
    28     4     6    1
@<TRIPOS>MOLECULE
MolPort-029-901-089 96161248 CSSS02125485854 MCULE-8330030179 PubChem-72910357 ZINC000096161248
 26 28 0 0 0
SMALL
GASTEIGER

@<TRIPOS>ATOM
      1 C          11.1109   41.7924    7.0195 C.2     1  UNL1        0.3045
      2 O          11.2092   41.6016    8.2620 O.2     1  UNL1       -0.2525
      3 N           9.8435   41.6560    6.3661 N.am    1  UNL1       -0.2865
      4 N          12.2578   42.1490    6.2379 N.am    1  UNL1       -0.2682
      5 H           9.8147   41.8123    5.3945 H       1  UNL1        0.1511
      6 H          12.1090   42.2851    5.2743 H       1  UNL1        0.1564
      7 C           7.4140   41.9862    6.3779 C.3     1  UNL1        0.1504
      8 C           6.5453   42.4064    7.5393 C.3     1  UNL1        0.1038
      9 C           6.7141   42.0833    9.8479 C.3     1  UNL1        0.0897
     10 C           8.5830   41.7542    8.4784 C.3     1  UNL1        0.0946
     11 C           8.5900   41.3029    7.0290 C.3     1  UNL1        0.1174
     12 N           7.4165   42.6048    8.6893 N.3     1  UNL1       -0.2679
     13 C           6.5332   39.9579    6.3701 C.3     1  UNL1        0.1741
     14 O           6.7235   41.0840    5.5677 O.3     1  UNL1       -0.3504
     15 C          13.5993   42.3283    6.7115 C.ar    1  UNL1        0.0546
     16 C          14.0935   41.4487    7.6810 C.ar    1  UNL1        0.0516
     17 C          15.3948   41.5862    8.1751 C.ar    1  UNL1        0.1396
     18 C          16.2118   42.6184    7.6874 C.ar    1  UNL1        0.0370
     19 C          15.7271   43.5008    6.7192 C.ar    1  UNL1        0.0044
     20 C          14.4255   43.3564    6.2331 C.ar    1  UNL1        0.0149
     21 O          15.8499   40.6844    9.1431 O.3     1  UNL1       -0.4791
     22 C          15.1336   39.5109    9.5137 C.3     1  UNL1        0.1659
     23 C          16.0780   38.4980   10.1432 C.3     1  UNL1        0.0435
     24 C          15.7592   38.4787   11.6214 C.3     1  UNL1        0.0038
     25 C          14.3139   38.9018   11.7177 C.3     1  UNL1        0.0038
     26 C          14.1039   39.8666   10.5713 C.3     1  UNL1        0.0435
@<TRIPOS>BOND
     1    13    14    1
     2     7    14    1
     3     7     8    1
     4     8    12    1
     5     9    12    1
     6    10    12    1
     7    10    11    1
     8    11     3    1
     9    11     7    1
    10     1     4   am
    11    16    17   ar
    12    17    21    1
    13    22    21    1
    14    22    23    1
    15    23    24    1
    16    24    25    1
    17    25    26    1
    18    26    22    1
    19    18    19   ar
    20    20    15   ar
    21     3     1   am
    22     4    15    1
    23     1     2    2
    24    15    16   ar
    25    17    18   ar
    26    19    20   ar
    27     3     5    1
    28     4     6    1
