@<TRIPOS>MOLECULE
MolPort-039-210-483 CSSS03436987857 MCULE-6303953660 PubChem-121017032
 20 21 0 0 0
SMALL
GASTEIGER

@<TRIPOS>ATOM
      1 C          10.5751   41.4443    6.2434 C.ar    1  UNL1        0.1040
      2 C          11.5173   42.1560    6.9493 C.ar    1  UNL1        0.1125
      3 C          10.9769   40.1223    6.2063 C.ar    1  UNL1        0.1374
      4 N          12.4471   41.2576    7.3179 N.ar    1  UNL1       -0.2456
      5 N          12.1409   40.0457    6.8805 N.ar    1  UNL1       -0.1662
      6 N           9.3971   41.9961    5.6554 N.pl3   1  UNL1       -0.2157
      7 H           9.4570   42.3892    4.7548 H       1  UNL1        0.1735
      8 S           7.8662   42.0005    6.4658 S.O2    1  UNL1        0.0523
      9 O           7.3679   40.5901    6.6123 O.2     1  UNL1       -0.1545
     10 O           6.8763   42.8055    5.6715 O.2     1  UNL1       -0.1545
     11 C           7.2114   43.9855    8.1846 C.3     1  UNL1        0.0273
     12 C           8.0513   42.7282    8.0824 C.3     1  UNL1        0.1489
     13 C           7.6144   41.7429    9.1478 C.3     1  UNL1        0.0273
     14 C          13.6526   41.5644    8.0712 C.3     1  UNL1        0.1569
     15 C          14.7113   42.1661    7.1607 C.3     1  UNL1        0.1395
     16 C          14.0612   43.0963    6.1207 C.3     1  UNL1        0.0317
     17 C          14.8483   44.3989    5.9569 C.3     1  UNL1        0.0051
     18 C          16.3587   44.1536    5.9938 C.3     1  UNL1        0.0322
     19 C          16.7423   43.1256    7.0710 C.3     1  UNL1        0.1421
     20 O          15.6639   42.8544    7.9335 O.3     1  UNL1       -0.3542
@<TRIPOS>BOND
     1    11    12    1
     2    12    13    1
     3    12     8    1
     4     2     4   ar
     5    14     4    1
     6    15    14    1
     7    15    16    1
     8    15    20    1
     9    16    17    1
    10    17    18    1
    11    18    19    1
    12    19    20    1
    13     3     1   ar
    14     8     6    1
    15     6     1    1
    16     4     5   ar
    17     1     2   ar
    18     3     5   ar
    19     8     9    2
    20     8    10    2
    21     6     7    1
@<TRIPOS>MOLECULE
MolPort-039-210-483 CSSS03436987857 MCULE-6303953660 PubChem-121017032
 20 21 0 0 0
SMALL
GASTEIGER

@<TRIPOS>ATOM
      1 C           8.6351   42.8007   10.0095 C.ar    1  UNL1        0.1040
      2 C           9.4121   42.1146    9.1051 C.ar    1  UNL1        0.1125
      3 C           9.4232   43.7688   10.6029 C.ar    1  UNL1        0.1374
      4 N          10.6297   42.6809    9.1721 N.ar    1  UNL1       -0.2456
      5 N          10.6519   43.6628   10.0603 N.ar    1  UNL1       -0.1662
      6 N           7.2575   42.5384   10.2768 N.pl3   1  UNL1       -0.2157
      7 H           6.9802   42.3640   11.2052 H       1  UNL1        0.1735
      8 S           6.0550   42.5154    9.0302 S.O2    1  UNL1        0.0523
      9 O           4.6895   42.6537    9.6428 O.2     1  UNL1       -0.1545
     10 O           6.1388   41.2210    8.2711 O.2     1  UNL1       -0.1545
     11 C           6.8841   43.3543    6.5946 C.3     1  UNL1        0.0273
     12 C           6.3351   43.8723    7.9088 C.3     1  UNL1        0.1489
     13 C           5.0370   44.6121    7.6554 C.3     1  UNL1        0.0273
     14 C          11.7891   42.2623    8.4007 C.3     1  UNL1        0.1569
     15 C          12.3689   40.9752    8.9658 C.3     1  UNL1        0.1395
     16 C          13.7930   40.7451    8.4287 C.3     1  UNL1        0.0317
     17 C          14.7475   40.2884    9.5349 C.3     1  UNL1        0.0051
     18 C          14.0721   39.3022   10.4910 C.3     1  UNL1        0.0322
     19 C          12.6276   39.7199   10.8126 C.3     1  UNL1        0.1421
     20 O          12.3579   41.0286   10.3713 O.3     1  UNL1       -0.3542
@<TRIPOS>BOND
     1    11    12    1
     2    12    13    1
     3    12     8    1
     4     2     4   ar
     5    14     4    1
     6    15    14    1
     7    15    16    1
     8    15    20    1
     9    16    17    1
    10    17    18    1
    11    18    19    1
    12    19    20    1
    13     3     1   ar
    14     8     6    1
    15     6     1    1
    16     4     5   ar
    17     1     2   ar
    18     3     5   ar
    19     8     9    2
    20     8    10    2
    21     6     7    1
@<TRIPOS>MOLECULE
MolPort-039-210-483 CSSS03436987857 MCULE-6303953660 PubChem-121017032
 20 21 0 0 0
SMALL
GASTEIGER

@<TRIPOS>ATOM
      1 C           8.5028   43.3891    9.5727 C.ar    1  UNL1        0.1040
      2 C           9.3472   42.6838    8.7468 C.ar    1  UNL1        0.1125
      3 C           9.2765   44.0822   10.4844 C.ar    1  UNL1        0.1374
      4 N          10.5902   42.9688    9.1728 N.ar    1  UNL1       -0.2456
      5 N          10.5634   43.7958   10.2067 N.ar    1  UNL1       -0.1662
      6 N           7.0777   43.3871    9.4882 N.pl3   1  UNL1       -0.2157
      7 H           6.6175   44.2193    9.2334 H       1  UNL1        0.1735
      8 S           6.1273   41.9767    9.8166 S.O2    1  UNL1        0.0523
      9 O           6.5557   41.3720   11.1241 O.2     1  UNL1       -0.1545
     10 O           6.3124   40.9742    8.7123 O.2     1  UNL1       -0.1545
     11 C           4.1103   43.5584    8.9488 C.3     1  UNL1        0.0273
     12 C           4.4061   42.4294    9.9155 C.3     1  UNL1        0.1489
     13 C           3.5357   41.2358    9.5772 C.3     1  UNL1        0.0273
     14 C          11.8132   42.4247    8.6043 C.3     1  UNL1        0.1569
     15 C          12.1040   41.0491    9.1832 C.3     1  UNL1        0.1395
     16 C          13.5721   40.6596    8.9335 C.3     1  UNL1        0.0317
     17 C          14.2101   40.0334   10.1760 C.3     1  UNL1        0.0051
     18 C          13.2360   39.1018   10.9015 C.3     1  UNL1        0.0322
     19 C          11.8159   39.6894   10.9501 C.3     1  UNL1        0.1421
     20 O          11.8022   41.0406   10.5569 O.3     1  UNL1       -0.3542
@<TRIPOS>BOND
     1    11    12    1
     2    12    13    1
     3    12     8    1
     4     2     4   ar
     5    14     4    1
     6    15    14    1
     7    15    16    1
     8    15    20    1
     9    16    17    1
    10    17    18    1
    11    18    19    1
    12    19    20    1
    13     3     1   ar
    14     8     6    1
    15     6     1    1
    16     4     5   ar
    17     1     2   ar
    18     3     5   ar
    19     8     9    2
    20     8    10    2
    21     6     7    1
@<TRIPOS>MOLECULE
MolPort-039-210-483 CSSS03436987857 MCULE-6303953660 PubChem-121017032
 20 21 0 0 0
SMALL
GASTEIGER

@<TRIPOS>ATOM
      1 C          11.6660   40.7932   10.5666 C.ar    1  UNL1        0.1040
      2 C          10.5090   41.1060   11.2418 C.ar    1  UNL1        0.1125
      3 C          11.7082   41.5550    9.4142 C.ar    1  UNL1        0.1374
      4 N           9.8941   42.0377   10.4924 N.ar    1  UNL1       -0.2456
      5 N          10.5935   42.3119    9.4018 N.ar    1  UNL1       -0.1662
      6 N          12.6381   39.8404   10.9970 N.pl3   1  UNL1       -0.2157
      7 H          13.1183   40.0024   11.8411 H       1  UNL1        0.1735
      8 S          13.0052   38.4104   10.0912 S.O2    1  UNL1        0.0523
      9 O          11.8796   38.1112    9.1412 O.2     1  UNL1       -0.1545
     10 O          13.1944   37.2521   11.0301 O.2     1  UNL1       -0.1545
     11 C          15.1424   39.9813    9.5551 C.3     1  UNL1        0.0273
     12 C          14.5053   38.6636    9.1623 C.3     1  UNL1        0.1489
     13 C          15.4788   37.5337    9.4312 C.3     1  UNL1        0.0273
     14 C           8.6140   42.6514   10.8073 C.3     1  UNL1        0.1569
     15 C           7.4694   41.7744   10.3249 C.3     1  UNL1        0.1395
     16 C           6.5556   41.3868   11.5014 C.3     1  UNL1        0.0317
     17 C           5.0753   41.5083   11.1314 C.3     1  UNL1        0.0051
     18 C           4.8091   41.0240    9.7040 C.3     1  UNL1        0.0322
     19 C           5.9093   41.4828    8.7328 C.3     1  UNL1        0.1421
     20 O           6.7488   42.4467    9.3214 O.3     1  UNL1       -0.3542
@<TRIPOS>BOND
     1    11    12    1
     2    12    13    1
     3    12     8    1
     4     2     4   ar
     5    14     4    1
     6    15    14    1
     7    15    16    1
     8    15    20    1
     9    16    17    1
    10    17    18    1
    11    18    19    1
    12    19    20    1
    13     3     1   ar
    14     8     6    1
    15     6     1    1
    16     4     5   ar
    17     1     2   ar
    18     3     5   ar
    19     8     9    2
    20     8    10    2
    21     6     7    1
@<TRIPOS>MOLECULE
MolPort-039-210-483 CSSS03436987857 MCULE-6303953660 PubChem-121017032
 20 21 0 0 0
SMALL
GASTEIGER

@<TRIPOS>ATOM
      1 C           6.2212   40.9000    7.7627 C.ar    1  UNL1        0.1040
      2 C           7.3388   41.4828    8.3138 C.ar    1  UNL1        0.1125
      3 C           6.5928   40.3024    6.5731 C.ar    1  UNL1        0.1374
      4 N           8.3418   41.2221    7.4571 N.ar    1  UNL1       -0.2456
      5 N           7.9126   40.5245    6.4166 N.ar    1  UNL1       -0.1662
      6 N           4.9134   40.9245    8.3347 N.pl3   1  UNL1       -0.2157
      7 H           4.2783   40.2117    8.0943 H       1  UNL1        0.1735
      8 S           4.4013   42.1601    9.4352 S.O2    1  UNL1        0.0523
      9 O           2.9457   42.4619    9.2142 O.2     1  UNL1       -0.1545
     10 O           5.2142   43.4043    9.2119 O.2     1  UNL1       -0.1545
     11 C           3.9814   40.2453   11.3009 C.3     1  UNL1        0.0273
     12 C           4.6363   41.5987   11.1106 C.3     1  UNL1        0.1489
     13 C           6.1162   41.4896   11.4183 C.3     1  UNL1        0.0273
     14 C           9.7166   41.6668    7.6205 C.3     1  UNL1        0.1569
     15 C          10.4237   40.8348    8.6787 C.3     1  UNL1        0.1395
     16 C          11.8861   40.5778    8.2727 C.3     1  UNL1        0.0317
     17 C          12.8423   40.7683    9.4528 C.3     1  UNL1        0.0051
     18 C          12.2520   40.2148   10.7520 C.3     1  UNL1        0.0322
     19 C          10.7557   40.5437   10.8829 C.3     1  UNL1        0.1421
     20 O          10.3484   41.4879    9.9221 O.3     1  UNL1       -0.3542
@<TRIPOS>BOND
     1    11    12    1
     2    12    13    1
     3    12     8    1
     4     2     4   ar
     5    14     4    1
     6    15    14    1
     7    15    16    1
     8    15    20    1
     9    16    17    1
    10    17    18    1
    11    18    19    1
    12    19    20    1
    13     3     1   ar
    14     8     6    1
    15     6     1    1
    16     4     5   ar
    17     1     2   ar
    18     3     5   ar
    19     8     9    2
    20     8    10    2
    21     6     7    1
@<TRIPOS>MOLECULE
MolPort-039-210-483 CSSS03436987857 MCULE-6303953660 PubChem-121017032
 20 21 0 0 0
SMALL
GASTEIGER

@<TRIPOS>ATOM
      1 C           6.0919   41.4345    8.7486 C.ar    1  UNL1        0.1040
      2 C           7.0329   41.3420    7.7494 C.ar    1  UNL1        0.1125
      3 C           6.6947   42.0078    9.8523 C.ar    1  UNL1        0.1374
      4 N           8.1613   41.8582    8.2671 N.ar    1  UNL1       -0.2456
      5 N           7.9762   42.2547    9.5169 N.ar    1  UNL1       -0.1662
      6 N           4.7353   41.0024    8.6440 N.pl3   1  UNL1       -0.2157
      7 H           4.5314   40.2114    8.0945 H       1  UNL1        0.1735
      8 S           3.4342   41.8165    9.4469 S.O2    1  UNL1        0.0523
      9 O           2.1263   41.1889    9.0539 O.2     1  UNL1       -0.1545
     10 O           3.4326   43.2692    9.0616 O.2     1  UNL1       -0.1545
     11 C           2.3916   42.1487   11.9219 C.3     1  UNL1        0.0273
     12 C           3.6447   41.6779   11.2114 C.3     1  UNL1        0.1489
     13 C           3.9262   40.2374   11.5886 C.3     1  UNL1        0.0273
     14 C           9.4347   41.9483    7.5707 C.3     1  UNL1        0.1569
     15 C          10.4591   41.0253    8.2115 C.3     1  UNL1        0.1395
     16 C          11.0908   41.6960    9.4446 C.3     1  UNL1        0.0317
     17 C          11.2028   40.7239   10.6217 C.3     1  UNL1        0.0051
     18 C          11.6146   39.3238   10.1598 C.3     1  UNL1        0.0322
     19 C          10.8961   38.9184    8.8622 C.3     1  UNL1        0.1421
     20 O           9.8482   39.8053    8.5532 O.3     1  UNL1       -0.3542
@<TRIPOS>BOND
     1    11    12    1
     2    12    13    1
     3    12     8    1
     4     2     4   ar
     5    14     4    1
     6    15    14    1
     7    15    16    1
     8    15    20    1
     9    16    17    1
    10    17    18    1
    11    18    19    1
    12    19    20    1
    13     3     1   ar
    14     8     6    1
    15     6     1    1
    16     4     5   ar
    17     1     2   ar
    18     3     5   ar
    19     8     9    2
    20     8    10    2
    21     6     7    1
@<TRIPOS>MOLECULE
MolPort-039-210-483 CSSS03436987857 MCULE-6303953660 PubChem-121017032
 20 21 0 0 0
SMALL
GASTEIGER

@<TRIPOS>ATOM
      1 C           6.4621   40.5808    7.1262 C.ar    1  UNL1        0.1040
      2 C           7.5942   41.3615    7.0871 C.ar    1  UNL1        0.1125
      3 C           6.6082   39.5686    6.1965 C.ar    1  UNL1        0.1374
      4 N           8.3840   40.8057    6.1517 N.ar    1  UNL1       -0.2456
      5 N           7.8097   39.7417    5.6117 N.ar    1  UNL1       -0.1662
      6 N           5.3409   40.7993    7.9825 N.pl3   1  UNL1       -0.2157
      7 H           4.4774   40.3901    7.7454 H       1  UNL1        0.1735
      8 S           5.4415   41.7566    9.4225 S.O2    1  UNL1        0.0523
      9 O           5.5850   43.2071    9.0560 O.2     1  UNL1       -0.1545
     10 O           6.6278   41.3220   10.2364 O.2     1  UNL1       -0.1545
     11 C           2.7732   41.3077    9.4693 C.3     1  UNL1        0.0273
     12 C           3.9577   41.5389   10.3860 C.3     1  UNL1        0.1489
     13 C           4.1130   40.3531   11.3167 C.3     1  UNL1        0.0273
     14 C           9.6871   41.3117    5.7510 C.3     1  UNL1        0.1569
     15 C          10.6338   41.3474    6.9404 C.3     1  UNL1        0.1395
     16 C          10.9742   39.9184    7.4003 C.3     1  UNL1        0.0317
     17 C          12.4667   39.7620    7.7021 C.3     1  UNL1        0.0051
     18 C          13.0319   40.9973    8.4075 C.3     1  UNL1        0.0322
     19 C          12.4765   42.2994    7.8072 C.3     1  UNL1        0.1421
     20 O          11.7960   42.0620    6.5985 O.3     1  UNL1       -0.3542
@<TRIPOS>BOND
     1    11    12    1
     2    12    13    1
     3    12     8    1
     4     2     4   ar
     5    14     4    1
     6    15    14    1
     7    15    16    1
     8    15    20    1
     9    16    17    1
    10    17    18    1
    11    18    19    1
    12    19    20    1
    13     3     1   ar
    14     8     6    1
    15     6     1    1
    16     4     5   ar
    17     1     2   ar
    18     3     5   ar
    19     8     9    2
    20     8    10    2
    21     6     7    1
@<TRIPOS>MOLECULE
MolPort-039-210-483 CSSS03436987857 MCULE-6303953660 PubChem-121017032
 20 21 0 0 0
SMALL
GASTEIGER

@<TRIPOS>ATOM
      1 C           9.8995   39.9647    8.3973 C.ar    1  UNL1        0.1040
      2 C          10.6922   40.7291    9.2218 C.ar    1  UNL1        0.1125
      3 C          10.3655   38.6643    8.4410 C.ar    1  UNL1        0.1374
      4 N          11.5999   39.8817    9.7373 N.ar    1  UNL1       -0.2456
      5 N          11.4200   38.6522    9.2796 N.ar    1  UNL1       -0.1662
      6 N           8.7955   40.4516    7.6342 N.pl3   1  UNL1       -0.2157
      7 H           8.2588   41.1926    7.9978 H       1  UNL1        0.1735
      8 S           8.3639   39.7885    6.0933 S.O2    1  UNL1        0.0523
      9 O           7.5015   40.7666    5.3460 O.2     1  UNL1       -0.1545
     10 O           7.6135   38.5012    6.2893 O.2     1  UNL1       -0.1545
     11 C           9.4794   38.8536    3.8119 C.3     1  UNL1        0.0273
     12 C           9.8414   39.4683    5.1489 C.3     1  UNL1        0.1489
     13 C          10.6008   40.7597    4.9202 C.3     1  UNL1        0.0273
     14 C          12.6652   40.2554   10.6538 C.3     1  UNL1        0.1569
     15 C          13.8160   39.2655   10.5653 C.3     1  UNL1        0.1395
     16 C          14.9527   39.8378    9.6994 C.3     1  UNL1        0.0317
     17 C          16.3245   39.5916   10.3324 C.3     1  UNL1        0.0051
     18 C          16.4107   38.2023   10.9691 C.3     1  UNL1        0.0322
     19 C          15.1165   37.8365   11.7143 C.3     1  UNL1        0.1421
     20 O          14.2707   38.9519   11.8588 O.3     1  UNL1       -0.3542
@<TRIPOS>BOND
     1    11    12    1
     2    12    13    1
     3    12     8    1
     4     2     4   ar
     5    14     4    1
     6    15    14    1
     7    15    16    1
     8    15    20    1
     9    16    17    1
    10    17    18    1
    11    18    19    1
    12    19    20    1
    13     3     1   ar
    14     8     6    1
    15     6     1    1
    16     4     5   ar
    17     1     2   ar
    18     3     5   ar
    19     8     9    2
    20     8    10    2
    21     6     7    1
@<TRIPOS>MOLECULE
MolPort-039-210-483 CSSS03436987857 MCULE-6303953660 PubChem-121017032
 20 21 0 0 0
SMALL
GASTEIGER

@<TRIPOS>ATOM
      1 C           6.8050   40.8838    7.2214 C.ar    1  UNL1        0.1040
      2 C           8.0854   40.5990    7.6360 C.ar    1  UNL1        0.1125
      3 C           6.3944   39.8715    6.3747 C.ar    1  UNL1        0.1374
      4 N           8.4079   39.4374    7.0407 N.ar    1  UNL1       -0.2456
      5 N           7.4140   38.9951    6.2856 N.ar    1  UNL1       -0.1662
      6 N           6.0516   42.0334    7.6071 N.pl3   1  UNL1       -0.2157
      7 H           5.8339   42.7078    6.9237 H       1  UNL1        0.1735
      8 S           5.5058   42.2873    9.2313 S.O2    1  UNL1        0.0523
      9 O           4.7948   43.6081    9.3248 O.2     1  UNL1       -0.1545
     10 O           6.6822   42.2801   10.1666 O.2     1  UNL1       -0.1545
     11 C           4.5115   40.6850   11.1722 C.3     1  UNL1        0.0273
     12 C           4.3823   40.9823    9.6918 C.3     1  UNL1        0.1489
     13 C           2.9565   41.3926    9.3832 C.3     1  UNL1        0.0273
     14 C           9.6868   38.7579    7.1729 C.3     1  UNL1        0.1569
     15 C          10.3550   39.1308    8.4868 C.3     1  UNL1        0.1395
     16 C          10.8535   37.8690    9.2141 C.3     1  UNL1        0.0317
     17 C          12.2591   38.0652    9.7878 C.3     1  UNL1        0.0051
     18 C          12.4362   39.4657   10.3796 C.3     1  UNL1        0.0322
     19 C          11.7819   40.5428    9.4986 C.3     1  UNL1        0.1421
     20 O          11.4107   40.0276    8.2428 O.3     1  UNL1       -0.3542
@<TRIPOS>BOND
     1    11    12    1
     2    12    13    1
     3    12     8    1
     4     2     4   ar
     5    14     4    1
     6    15    14    1
     7    15    16    1
     8    15    20    1
     9    16    17    1
    10    17    18    1
    11    18    19    1
    12    19    20    1
    13     3     1   ar
    14     8     6    1
    15     6     1    1
    16     4     5   ar
    17     1     2   ar
    18     3     5   ar
    19     8     9    2
    20     8    10    2
    21     6     7    1
@<TRIPOS>MOLECULE
MolPort-039-210-483 CSSS03436987857 MCULE-6303953660 PubChem-121017032
 20 21 0 0 0
SMALL
GASTEIGER

@<TRIPOS>ATOM
      1 C           6.2549   41.6122    8.0600 C.ar    1  UNL1        0.1040
      2 C           7.4687   41.0410    8.3648 C.ar    1  UNL1        0.1125
      3 C           6.4953   42.7854    7.3701 C.ar    1  UNL1        0.1374
      4 N           8.3962   41.8700    7.8547 N.ar    1  UNL1       -0.2456
      5 N           7.8325   42.9124    7.2638 N.ar    1  UNL1       -0.1662
      6 N           4.9804   41.0724    8.4097 N.pl3   1  UNL1       -0.2157
      7 H           4.7110   40.2073    8.0249 H       1  UNL1        0.1735
      8 S           3.8898   41.8813    9.4852 S.O2    1  UNL1        0.0523
      9 O           2.4797   41.4521    9.1919 O.2     1  UNL1       -0.1545
     10 O           4.0124   43.3684    9.3050 O.2     1  UNL1       -0.1545
     11 C           3.8517   40.0409   11.4687 C.3     1  UNL1        0.0273
     12 C           4.2933   41.4593   11.1694 C.3     1  UNL1        0.1489
     13 C           5.7878   41.5785   11.3901 C.3     1  UNL1        0.0273
     14 C           9.8341   41.6785    7.9565 C.3     1  UNL1        0.1569
     15 C          10.3332   40.7815    6.8347 C.3     1  UNL1        0.1395
     16 C           9.8611   39.3328    7.0537 C.3     1  UNL1        0.0317
     17 C           9.3499   38.7025    5.7557 C.3     1  UNL1        0.0051
     18 C          10.2135   39.1017    4.5566 C.3     1  UNL1        0.0322
     19 C          10.6154   40.5848    4.6132 C.3     1  UNL1        0.1421
     20 O           9.8880   41.2799    5.5971 O.3     1  UNL1       -0.3542
@<TRIPOS>BOND
     1    11    12    1
     2    12    13    1
     3    12     8    1
     4     2     4   ar
     5    14     4    1
     6    15    14    1
     7    15    16    1
     8    15    20    1
     9    16    17    1
    10    17    18    1
    11    18    19    1
    12    19    20    1
    13     3     1   ar
    14     8     6    1
    15     6     1    1
    16     4     5   ar
    17     1     2   ar
    18     3     5   ar
    19     8     9    2
    20     8    10    2
    21     6     7    1
