@<TRIPOS>MOLECULE
MolPort-006-580-049 ChemDiv-V019-1762 MCULE-8391059656 PubChem-46041015 ZINC000037544724 ZINC37544724
 31 33 0 0 0
SMALL
GASTEIGER

@<TRIPOS>ATOM
      1 C          13.7297   40.1384    8.2448 C.3     1  UNL1        0.0971
      2 C          12.9695   39.1459    9.1155 C.3     1  UNL1        0.0435
      3 C          12.4793   39.8728   10.3606 C.3     1  UNL1        0.1015
      4 C          11.9123   41.7676    8.8494 C.2     1  UNL1        0.3112
      5 O          11.3583   42.8854    8.6620 O.2     1  UNL1       -0.2520
      6 N          12.8861   41.2833    7.9094 N.am    1  UNL1       -0.2596
      7 N          11.5642   40.9544    9.9892 N.am    1  UNL1       -0.2430
      8 C          10.3244   41.1120   10.7132 C.ar    1  UNL1        0.0565
      9 C          10.3285   41.1995   12.1151 C.ar    1  UNL1        0.0150
     10 C           9.1324   41.3307   12.8242 C.ar    1  UNL1        0.0026
     11 C           7.9166   41.3704   12.1392 C.ar    1  UNL1        0.0148
     12 C           7.8885   41.2782   10.7408 C.ar    1  UNL1        0.0528
     13 C           9.0915   41.1484   10.0404 C.ar    1  UNL1        0.0297
     14 C           5.3444   41.5145   10.5296 C.2     1  UNL1        0.3047
     15 O           5.1596   41.6673   11.7673 O.2     1  UNL1       -0.2525
     16 N           6.6609   41.3140   10.0005 N.am    1  UNL1       -0.2683
     17 N           4.2347   41.5459    9.6303 N.am    1  UNL1       -0.2846
     18 H           6.7299   41.1875    9.0266 H       1  UNL1        0.1564
     19 H           4.4089   41.4733    8.6641 H       1  UNL1        0.1513
     20 C           2.8565   41.6807   10.0822 C.3     1  UNL1        0.1174
     21 C           2.8037   42.3534   11.4166 C.2     1  UNL1       -0.0049
     22 C           1.7483   42.2156   12.2149 C.2     1  UNL1       -0.0032
     23 C          12.9761   41.8523    6.5714 C.3     1  UNL1        0.1218
     24 C          16.3057   43.5470    7.2170 C.ar    1  UNL1        0.1385
     25 C          16.1781   44.6985    6.4222 C.ar    1  UNL1        0.0369
     26 C          15.0162   44.9147    5.6762 C.ar    1  UNL1        0.0028
     27 C          13.9760   43.9827    5.7180 C.ar    1  UNL1       -0.0024
     28 C          14.0992   42.8309    6.5013 C.ar    1  UNL1        0.0007
     29 C          15.2598   42.6189    7.2534 C.ar    1  UNL1        0.0343
     30 C          17.7607   42.0251    8.5147 C.3     1  UNL1        0.2525
     31 O          17.4528   43.3039    7.9770 O.3     1  UNL1       -0.4714
@<TRIPOS>BOND
     1    30    31    1
     2    24    31    1
     3    25    26   ar
     4    27    28   ar
     5    23    28    1
     6    23     6    1
     7     1     6    1
     8     1     2    1
     9     2     3    1
    10     3     7    1
    11     4     6   am
    12     9    10   ar
    13    11    12   ar
    14    12    16    1
    15    14    17   am
    16    20    17    1
    17    20    21    1
    18    13     8   ar
    19    29    24   ar
    20     7     4   am
    21     7     8    1
    22    16    14   am
    23    24    25   ar
    24    26    27   ar
    25    28    29   ar
    26     4     5    2
    27     8     9   ar
    28    10    11   ar
    29    12    13   ar
    30    14    15    2
    31    21    22    2
    32    16    18    1
    33    17    19    1
@<TRIPOS>MOLECULE
MolPort-006-580-049 ChemDiv-V019-1762 MCULE-8391059656 PubChem-46041015 ZINC000037544724 ZINC37544724
 31 33 0 0 0
SMALL
GASTEIGER

@<TRIPOS>ATOM
      1 C          13.6798   41.5402    7.0422 C.3     1  UNL1        0.0971
      2 C          12.4549   42.4463    7.0465 C.3     1  UNL1        0.0435
      3 C          11.2798   41.6663    7.6207 C.3     1  UNL1        0.1015
      4 C          12.8848   40.7758    9.3019 C.2     1  UNL1        0.3112
      5 O          13.1071   40.1315   10.3634 O.2     1  UNL1       -0.2520
      6 N          13.9611   41.0453    8.3880 N.am    1  UNL1       -0.2596
      7 N          11.5619   41.2672    9.0014 N.am    1  UNL1       -0.2430
      8 C          10.5491   41.4565   10.0135 C.ar    1  UNL1        0.0565
      9 C          10.7580   40.9887   11.3214 C.ar    1  UNL1        0.0150
     10 C           9.7752   41.1488   12.3007 C.ar    1  UNL1        0.0026
     11 C           8.5684   41.7741   11.9817 C.ar    1  UNL1        0.0148
     12 C           8.3360   42.2427   10.6813 C.ar    1  UNL1        0.0528
     13 C           9.3268   42.0787    9.7087 C.ar    1  UNL1        0.0297
     14 C           5.8767   42.2526    9.9567 C.2     1  UNL1        0.3047
     15 O           5.7819   40.9959    9.9235 O.2     1  UNL1       -0.2525
     16 N           7.1100   42.8892   10.3134 N.am    1  UNL1       -0.2683
     17 N           4.7443   43.0650    9.6427 N.am    1  UNL1       -0.2846
     18 H           7.1163   43.8736   10.3049 H       1  UNL1        0.1564
     19 H           4.8288   44.0426    9.7230 H       1  UNL1        0.1513
     20 C           3.4700   42.5085    9.2087 C.3     1  UNL1        0.1174
     21 C           2.8324   41.7293   10.3141 C.2     1  UNL1       -0.0049
     22 C           2.7013   42.2462   11.5330 C.2     1  UNL1       -0.0032
     23 C          15.3483   40.9341    8.8182 C.3     1  UNL1        0.1218
     24 C          16.4275   43.8619    6.6645 C.ar    1  UNL1        0.1385
     25 C          17.6770   44.1643    7.2310 C.ar    1  UNL1        0.0369
     26 C          18.1588   43.4215    8.3125 C.ar    1  UNL1        0.0028
     27 C          17.3958   42.3742    8.8355 C.ar    1  UNL1       -0.0024
     28 C          16.1480   42.0724    8.2811 C.ar    1  UNL1        0.0007
     29 C          15.6698   42.8119    7.1939 C.ar    1  UNL1        0.0343
     30 C          14.5415   44.9032    5.4495 C.3     1  UNL1        0.2525
     31 O          15.9197   44.5832    5.5807 O.3     1  UNL1       -0.4714
@<TRIPOS>BOND
     1    30    31    1
     2    24    31    1
     3    25    26   ar
     4    27    28   ar
     5    23    28    1
     6    23     6    1
     7     1     6    1
     8     1     2    1
     9     2     3    1
    10     3     7    1
    11     4     6   am
    12     9    10   ar
    13    11    12   ar
    14    12    16    1
    15    14    17   am
    16    20    17    1
    17    20    21    1
    18    13     8   ar
    19    29    24   ar
    20     7     4   am
    21     7     8    1
    22    16    14   am
    23    24    25   ar
    24    26    27   ar
    25    28    29   ar
    26     4     5    2
    27     8     9   ar
    28    10    11   ar
    29    12    13   ar
    30    14    15    2
    31    21    22    2
    32    16    18    1
    33    17    19    1
@<TRIPOS>MOLECULE
MolPort-006-580-049 ChemDiv-V019-1762 MCULE-8391059656 PubChem-46041015 ZINC000037544724 ZINC37544724
 31 33 0 0 0
SMALL
GASTEIGER

@<TRIPOS>ATOM
      1 C          10.4761   41.8470   10.5323 C.3     1  UNL1        0.0971
      2 C           9.5688   41.1913   11.5658 C.3     1  UNL1        0.0435
      3 C           8.2504   41.9525   11.6029 C.3     1  UNL1        0.1015
      4 C           8.4047   42.0437    9.1203 C.2     1  UNL1        0.3112
      5 O           7.8804   42.3077    8.0038 O.2     1  UNL1       -0.2520
      6 N           9.8290   41.8783    9.2225 N.am    1  UNL1       -0.2596
      7 N           7.5877   41.8832   10.2987 N.am    1  UNL1       -0.2430
      8 C           6.1775   41.5770   10.2371 C.ar    1  UNL1        0.0565
      9 C           5.5952   41.1587    9.0293 C.ar    1  UNL1        0.0150
     10 C           4.2284   40.8812    8.9559 C.ar    1  UNL1        0.0026
     11 C           3.4261   41.0243   10.0895 C.ar    1  UNL1        0.0148
     12 C           3.9849   41.4468   11.3036 C.ar    1  UNL1        0.0528
     13 C           5.3544   41.7208   11.3666 C.ar    1  UNL1        0.0297
     14 C           1.8648   42.1334   12.5711 C.2     1  UNL1        0.3047
     15 O           1.2621   42.5343   11.5389 O.2     1  UNL1       -0.2525
     16 N           3.1951   41.6070   12.4896 N.am    1  UNL1       -0.2683
     17 N           1.2214   42.1936   13.8452 N.am    1  UNL1       -0.2846
     18 H           3.6104   41.3259   13.3369 H       1  UNL1        0.1564
     19 H           1.6930   41.8297   14.6290 H       1  UNL1        0.1513
     20 C          -0.1028   42.7704   14.0340 C.3     1  UNL1        0.1174
     21 C          -0.9629   41.8580   14.8486 C.2     1  UNL1       -0.0049
     22 C          -1.4792   40.7496   14.3242 C.2     1  UNL1       -0.0032
     23 C          10.6367   41.6321    8.0356 C.3     1  UNL1        0.1218
     24 C          13.0712   39.0892    9.4434 C.ar    1  UNL1        0.1385
     25 C          14.2990   39.7161    9.1726 C.ar    1  UNL1        0.0369
     26 C          14.3301   40.9562    8.5288 C.ar    1  UNL1        0.0028
     27 C          13.1368   41.5766    8.1503 C.ar    1  UNL1       -0.0024
     28 C          11.9115   40.9550    8.4102 C.ar    1  UNL1        0.0007
     29 C          11.8810   39.7169    9.0613 C.ar    1  UNL1        0.0343
     30 C          12.1585   36.7995    9.6482 C.3     1  UNL1        0.2525
     31 O          13.0063   37.8514   10.0887 O.3     1  UNL1       -0.4714
@<TRIPOS>BOND
     1    30    31    1
     2    24    31    1
     3    25    26   ar
     4    27    28   ar
     5    23    28    1
     6    23     6    1
     7     1     6    1
     8     1     2    1
     9     2     3    1
    10     3     7    1
    11     4     6   am
    12     9    10   ar
    13    11    12   ar
    14    12    16    1
    15    14    17   am
    16    20    17    1
    17    20    21    1
    18    13     8   ar
    19    29    24   ar
    20     7     4   am
    21     7     8    1
    22    16    14   am
    23    24    25   ar
    24    26    27   ar
    25    28    29   ar
    26     4     5    2
    27     8     9   ar
    28    10    11   ar
    29    12    13   ar
    30    14    15    2
    31    21    22    2
    32    16    18    1
    33    17    19    1
@<TRIPOS>MOLECULE
MolPort-006-580-049 ChemDiv-V019-1762 MCULE-8391059656 PubChem-46041015 ZINC000037544724 ZINC37544724
 31 33 0 0 0
SMALL
GASTEIGER

@<TRIPOS>ATOM
      1 C           9.8351   40.3396    7.0544 C.3     1  UNL1        0.0971
      2 C          11.0465   39.9581    6.2129 C.3     1  UNL1        0.0435
      3 C          11.7105   41.2352    5.7159 C.3     1  UNL1        0.1015
      4 C          11.2983   42.1576    7.9908 C.2     1  UNL1        0.3112
      5 O          11.4774   43.0646    8.8490 O.2     1  UNL1       -0.2520
      6 N          10.2272   41.2136    8.1578 N.am    1  UNL1       -0.2596
      7 N          12.1722   42.0408    6.8486 N.am    1  UNL1       -0.2430
      8 C          13.4992   42.6102    6.8175 C.ar    1  UNL1        0.0565
      9 C          13.7583   43.7625    6.0573 C.ar    1  UNL1        0.0150
     10 C          15.0433   44.3073    6.0048 C.ar    1  UNL1        0.0026
     11 C          16.0864   43.7022    6.7083 C.ar    1  UNL1        0.0148
     12 C          15.8519   42.5478    7.4680 C.ar    1  UNL1        0.0528
     13 C          14.5617   42.0112    7.5149 C.ar    1  UNL1        0.0297
     14 C          16.7411   40.8518    9.1726 C.2     1  UNL1        0.3047
     15 O          15.5984   40.4156    9.4784 O.2     1  UNL1       -0.2525
     16 N          16.8961   41.8960    8.2036 N.am    1  UNL1       -0.2683
     17 N          17.9065   40.3015    9.7891 N.am    1  UNL1       -0.2846
     18 H          17.8159   42.1975    8.0240 H       1  UNL1        0.1564
     19 H          18.7902   40.6239    9.4986 H       1  UNL1        0.1513
     20 C          17.8430   39.2836   10.8291 C.3     1  UNL1        0.1174
     21 C          16.7789   38.2800   10.5187 C.2     1  UNL1       -0.0049
     22 C          15.9631   37.8271   11.4672 C.2     1  UNL1       -0.0032
     23 C           9.5874   41.0357    9.4544 C.3     1  UNL1        0.1218
     24 C           6.0988   42.0386   10.5492 C.ar    1  UNL1        0.1385
     25 C           5.6296   42.6811    9.3913 C.ar    1  UNL1        0.0369
     26 C           6.4499   42.7916    8.2651 C.ar    1  UNL1        0.0028
     27 C           7.7431   42.2630    8.2887 C.ar    1  UNL1       -0.0024
     28 C           8.2191   41.6285    9.4403 C.ar    1  UNL1        0.0007
     29 C           7.3946   41.5120   10.5647 C.ar    1  UNL1        0.0343
     30 C           3.8960   41.7138   11.6261 C.3     1  UNL1        0.2525
     31 O           5.3021   41.9087   11.6898 O.3     1  UNL1       -0.4714
@<TRIPOS>BOND
     1    30    31    1
     2    24    31    1
     3    25    26   ar
     4    27    28   ar
     5    23    28    1
     6    23     6    1
     7     1     6    1
     8     1     2    1
     9     2     3    1
    10     3     7    1
    11     4     6   am
    12     9    10   ar
    13    11    12   ar
    14    12    16    1
    15    14    17   am
    16    20    17    1
    17    20    21    1
    18    13     8   ar
    19    29    24   ar
    20     7     4   am
    21     7     8    1
    22    16    14   am
    23    24    25   ar
    24    26    27   ar
    25    28    29   ar
    26     4     5    2
    27     8     9   ar
    28    10    11   ar
    29    12    13   ar
    30    14    15    2
    31    21    22    2
    32    16    18    1
    33    17    19    1
@<TRIPOS>MOLECULE
MolPort-006-580-049 ChemDiv-V019-1762 MCULE-8391059656 PubChem-46041015 ZINC000037544724 ZINC37544724
 31 33 0 0 0
SMALL
GASTEIGER

@<TRIPOS>ATOM
      1 C          10.8853   42.3854    8.3503 C.3     1  UNL1        0.0971
      2 C          11.2748   42.2344    9.8155 C.3     1  UNL1        0.0435
      3 C          11.0244   40.7921   10.2352 C.3     1  UNL1        0.1015
      4 C          11.9739   40.1418    8.0281 C.2     1  UNL1        0.3112
      5 O          12.3968   39.2499    7.2426 O.2     1  UNL1       -0.2520
      6 N          11.6269   41.4404    7.5185 N.am    1  UNL1       -0.2596
      7 N          11.8537   39.8818    9.4422 N.am    1  UNL1       -0.2430
      8 C          12.5777   38.8237   10.1073 C.ar    1  UNL1        0.0565
      9 C          13.4759   39.1232   11.1449 C.ar    1  UNL1        0.0150
     10 C          14.1958   38.1081   11.7790 C.ar    1  UNL1        0.0026
     11 C          14.0300   36.7810   11.3786 C.ar    1  UNL1        0.0148
     12 C          13.1439   36.4601   10.3409 C.ar    1  UNL1        0.0528
     13 C          12.4271   37.4834    9.7137 C.ar    1  UNL1        0.0297
     14 C          13.9215   34.2529    9.2939 C.2     1  UNL1        0.3047
     15 O          15.0955   34.6583    9.0772 O.2     1  UNL1       -0.2525
     16 N          12.9461   35.1101    9.8997 N.am    1  UNL1       -0.2683
     17 N          13.5474   32.9200    8.9409 N.am    1  UNL1       -0.2846
     18 H          12.0457   34.7327   10.0263 H       1  UNL1        0.1564
     19 H          12.6399   32.6104    9.1644 H       1  UNL1        0.1513
     20 C          14.4513   31.9996    8.2644 C.3     1  UNL1        0.1174
     21 C          15.6854   32.7120    7.8114 C.2     1  UNL1       -0.0049
     22 C          16.2570   32.4235    6.6451 C.2     1  UNL1       -0.0032
     23 C          12.0979   41.8770    6.2110 C.3     1  UNL1        0.1218
     24 C          15.6022   42.7929    7.3315 C.ar    1  UNL1        0.1385
     25 C          15.7917   44.0072    6.6509 C.ar    1  UNL1        0.0369
     26 C          14.7847   44.5180    5.8272 C.ar    1  UNL1        0.0028
     27 C          13.5841   43.8193    5.6769 C.ar    1  UNL1       -0.0024
     28 C          13.3916   42.6064    6.3457 C.ar    1  UNL1        0.0007
     29 C          14.3974   42.0995    7.1758 C.ar    1  UNL1        0.0343
     30 C          17.7994   42.9403    8.4576 C.3     1  UNL1        0.2525
     31 O          16.5879   42.2578    8.1650 O.3     1  UNL1       -0.4714
@<TRIPOS>BOND
     1    30    31    1
     2    24    31    1
     3    25    26   ar
     4    27    28   ar
     5    23    28    1
     6    23     6    1
     7     1     6    1
     8     1     2    1
     9     2     3    1
    10     3     7    1
    11     4     6   am
    12     9    10   ar
    13    11    12   ar
    14    12    16    1
    15    14    17   am
    16    20    17    1
    17    20    21    1
    18    13     8   ar
    19    29    24   ar
    20     7     4   am
    21     7     8    1
    22    16    14   am
    23    24    25   ar
    24    26    27   ar
    25    28    29   ar
    26     4     5    2
    27     8     9   ar
    28    10    11   ar
    29    12    13   ar
    30    14    15    2
    31    21    22    2
    32    16    18    1
    33    17    19    1
@<TRIPOS>MOLECULE
MolPort-006-580-049 ChemDiv-V019-1762 MCULE-8391059656 PubChem-46041015 ZINC000037544724 ZINC37544724
 31 33 0 0 0
SMALL
GASTEIGER

@<TRIPOS>ATOM
      1 C          10.5188   41.3154   10.8753 C.3     1  UNL1        0.0971
      2 C           9.4552   41.3567   11.9654 C.3     1  UNL1        0.0435
      3 C           8.2809   42.1857   11.4626 C.3     1  UNL1        0.1015
      4 C           8.5971   41.0358    9.2779 C.2     1  UNL1        0.3112
      5 O           8.1917   40.7802    8.1110 O.2     1  UNL1       -0.2520
      6 N           9.9657   40.7782    9.6340 N.am    1  UNL1       -0.2596
      7 N           7.6955   41.5660   10.2717 N.am    1  UNL1       -0.2430
      8 C           6.2604   41.4338   10.1759 C.ar    1  UNL1        0.0565
      9 C           5.6513   41.2049    8.9311 C.ar    1  UNL1        0.0150
     10 C           4.2627   41.0970    8.8266 C.ar    1  UNL1        0.0026
     11 C           3.4659   41.2225    9.9661 C.ar    1  UNL1        0.0148
     12 C           4.0521   41.4576   11.2174 C.ar    1  UNL1        0.0528
     13 C           5.4430   41.5627   11.3114 C.ar    1  UNL1        0.0297
     14 C           1.9380   42.1152   12.5101 C.2     1  UNL1        0.3047
     15 O           1.3282   42.5341   11.4892 O.2     1  UNL1       -0.2525
     16 N           3.2689   41.5935   12.4109 N.am    1  UNL1       -0.2683
     17 N           1.3018   42.1497   13.7889 N.am    1  UNL1       -0.2846
     18 H           3.6898   41.2974   13.2502 H       1  UNL1        0.1564
     19 H           1.7789   41.7721   14.5629 H       1  UNL1        0.1513
     20 C          -0.0225   42.7197   13.9962 C.3     1  UNL1        0.1174
     21 C          -0.8403   41.8401   14.8870 C.2     1  UNL1       -0.0049
     22 C          -1.4502   40.7572   14.4122 C.2     1  UNL1       -0.0032
     23 C          10.7916   39.8930    8.8239 C.3     1  UNL1        0.1218
     24 C          13.2526   42.2010    7.0942 C.ar    1  UNL1        0.1385
     25 C          14.4586   41.8059    7.6968 C.ar    1  UNL1        0.0369
     26 C          14.4654   40.7985    8.6656 C.ar    1  UNL1        0.0028
     27 C          13.2690   40.1811    9.0393 C.ar    1  UNL1       -0.0024
     28 C          12.0640   40.5743    8.4487 C.ar    1  UNL1        0.0007
     29 C          12.0592   41.5779    7.4738 C.ar    1  UNL1        0.0343
     30 C          14.3185   44.0522    5.8475 C.3     1  UNL1        0.2525
     31 O          13.2129   43.2022    6.1201 O.3     1  UNL1       -0.4714
@<TRIPOS>BOND
     1    30    31    1
     2    24    31    1
     3    25    26   ar
     4    27    28   ar
     5    23    28    1
     6    23     6    1
     7     1     6    1
     8     1     2    1
     9     2     3    1
    10     3     7    1
    11     4     6   am
    12     9    10   ar
    13    11    12   ar
    14    12    16    1
    15    14    17   am
    16    20    17    1
    17    20    21    1
    18    13     8   ar
    19    29    24   ar
    20     7     4   am
    21     7     8    1
    22    16    14   am
    23    24    25   ar
    24    26    27   ar
    25    28    29   ar
    26     4     5    2
    27     8     9   ar
    28    10    11   ar
    29    12    13   ar
    30    14    15    2
    31    21    22    2
    32    16    18    1
    33    17    19    1
@<TRIPOS>MOLECULE
MolPort-006-580-049 ChemDiv-V019-1762 MCULE-8391059656 PubChem-46041015 ZINC000037544724 ZINC37544724
 31 33 0 0 0
SMALL
GASTEIGER

@<TRIPOS>ATOM
      1 C           8.9724   41.2633    6.8302 C.3     1  UNL1        0.0971
      2 C           9.5730   39.8757    7.0175 C.3     1  UNL1        0.0435
      3 C          11.0759   40.0228    7.2141 C.3     1  UNL1        0.1015
      4 C          10.5449   41.9806    8.6565 C.2     1  UNL1        0.3112
      5 O          10.9173   42.8657    9.4746 O.2     1  UNL1       -0.2520
      6 N           9.2904   42.1218    7.9691 N.am    1  UNL1       -0.2596
      7 N          11.3553   40.8113    8.4163 N.am    1  UNL1       -0.2430
      8 C          12.3591   40.3505    9.3471 C.ar    1  UNL1        0.0565
      9 C          11.9857   39.8807   10.6170 C.ar    1  UNL1        0.0150
     10 C          12.9516   39.4533   11.5308 C.ar    1  UNL1        0.0026
     11 C          14.3040   39.4960   11.1869 C.ar    1  UNL1        0.0148
     12 C          14.6997   39.9672    9.9275 C.ar    1  UNL1        0.0528
     13 C          13.7248   40.3915    9.0196 C.ar    1  UNL1        0.0297
     14 C          17.1659   39.2904   10.1072 C.2     1  UNL1        0.3047
     15 O          16.9771   38.4960   11.0679 O.2     1  UNL1       -0.2525
     16 N          16.0779   40.0279    9.5365 N.am    1  UNL1       -0.2683
     17 N          18.4772   39.4621    9.5667 N.am    1  UNL1       -0.2846
     18 H          16.3000   40.6404    8.7984 H       1  UNL1        0.1564
     19 H          18.5916   40.0502    8.7855 H       1  UNL1        0.1513
     20 C          19.6520   38.8040   10.1222 C.3     1  UNL1        0.1174
     21 C          19.5736   37.3251    9.9156 C.2     1  UNL1       -0.0049
     22 C          19.5231   36.8034    8.6927 C.2     1  UNL1       -0.0032
     23 C           8.2737   43.0435    8.4576 C.3     1  UNL1        0.1218
     24 C           5.2647   41.7408   10.3613 C.ar    1  UNL1        0.1385
     25 C           5.8814   41.2150   11.5088 C.ar    1  UNL1        0.0369
     26 C           7.2699   41.2796   11.6549 C.ar    1  UNL1        0.0028
     27 C           8.0505   41.8678   10.6563 C.ar    1  UNL1       -0.0024
     28 C           7.4438   42.3867    9.5083 C.ar    1  UNL1        0.0007
     29 C           6.0531   42.3280    9.3663 C.ar    1  UNL1        0.0343
     30 C           2.9636   41.9329   11.2478 C.3     1  UNL1        0.2525
     31 O           3.8789   41.6950   10.1872 O.3     1  UNL1       -0.4714
@<TRIPOS>BOND
     1    30    31    1
     2    24    31    1
     3    25    26   ar
     4    27    28   ar
     5    23    28    1
     6    23     6    1
     7     1     6    1
     8     1     2    1
     9     2     3    1
    10     3     7    1
    11     4     6   am
    12     9    10   ar
    13    11    12   ar
    14    12    16    1
    15    14    17   am
    16    20    17    1
    17    20    21    1
    18    13     8   ar
    19    29    24   ar
    20     7     4   am
    21     7     8    1
    22    16    14   am
    23    24    25   ar
    24    26    27   ar
    25    28    29   ar
    26     4     5    2
    27     8     9   ar
    28    10    11   ar
    29    12    13   ar
    30    14    15    2
    31    21    22    2
    32    16    18    1
    33    17    19    1
@<TRIPOS>MOLECULE
MolPort-006-580-049 ChemDiv-V019-1762 MCULE-8391059656 PubChem-46041015 ZINC000037544724 ZINC37544724
 31 33 0 0 0
SMALL
GASTEIGER

@<TRIPOS>ATOM
      1 C          12.5932   41.0516    9.6495 C.3     1  UNL1        0.0971
      2 C          11.3722   40.3160   10.1873 C.3     1  UNL1        0.0435
      3 C          10.1239   40.9522    9.5906 C.3     1  UNL1        0.1015
      4 C          11.3825   41.0542    7.4456 C.2     1  UNL1        0.3112
      5 O          11.4039   41.2672    6.2024 O.2     1  UNL1       -0.2520
      6 N          12.6126   41.0213    8.1887 N.am    1  UNL1       -0.2596
      7 N          10.1352   40.8203    8.1320 N.am    1  UNL1       -0.2430
      8 C           8.9377   40.3850    7.4517 C.ar    1  UNL1        0.0565
      9 C           9.0282   39.6311    6.2701 C.ar    1  UNL1        0.0150
     10 C           7.8754   39.2243    5.5946 C.ar    1  UNL1        0.0026
     11 C           6.6175   39.5719    6.0904 C.ar    1  UNL1        0.0148
     12 C           6.5038   40.3293    7.2644 C.ar    1  UNL1        0.0528
     13 C           7.6639   40.7304    7.9337 C.ar    1  UNL1        0.0297
     14 C           4.9958   41.5642    8.9299 C.2     1  UNL1        0.3047
     15 O           5.9563   42.0653    9.5750 O.2     1  UNL1       -0.2525
     16 N           5.2309   40.7076    7.8055 N.am    1  UNL1       -0.2683
     17 N           3.6494   41.8516    9.3113 N.am    1  UNL1       -0.2846
     18 H           4.4349   40.3402    7.3574 H       1  UNL1        0.1564
     19 H           2.9166   41.4886    8.7631 H       1  UNL1        0.1513
     20 C           3.3145   42.6588   10.4767 C.3     1  UNL1        0.1174
     21 C           3.3034   41.8182   11.7133 C.2     1  UNL1       -0.0049
     22 C           3.6690   40.5394   11.6788 C.2     1  UNL1       -0.0032
     23 C          13.8890   40.8494    7.5081 C.3     1  UNL1        0.1218
     24 C          16.0710   43.9205    7.0815 C.ar    1  UNL1        0.1385
     25 C          15.3128   44.6613    6.1596 C.ar    1  UNL1        0.0369
     26 C          14.1020   44.1572    5.6765 C.ar    1  UNL1        0.0028
     27 C          13.6422   42.9108    6.1093 C.ar    1  UNL1       -0.0024
     28 C          14.3954   42.1649    7.0213 C.ar    1  UNL1        0.0007
     29 C          15.6038   42.6736    7.5099 C.ar    1  UNL1        0.0343
     30 C          18.0241   43.7103    8.5845 C.3     1  UNL1        0.2525
     31 O          17.2834   44.3984    7.5860 O.3     1  UNL1       -0.4714
@<TRIPOS>BOND
     1    30    31    1
     2    24    31    1
     3    25    26   ar
     4    27    28   ar
     5    23    28    1
     6    23     6    1
     7     1     6    1
     8     1     2    1
     9     2     3    1
    10     3     7    1
    11     4     6   am
    12     9    10   ar
    13    11    12   ar
    14    12    16    1
    15    14    17   am
    16    20    17    1
    17    20    21    1
    18    13     8   ar
    19    29    24   ar
    20     7     4   am
    21     7     8    1
    22    16    14   am
    23    24    25   ar
    24    26    27   ar
    25    28    29   ar
    26     4     5    2
    27     8     9   ar
    28    10    11   ar
    29    12    13   ar
    30    14    15    2
    31    21    22    2
    32    16    18    1
    33    17    19    1
@<TRIPOS>MOLECULE
MolPort-006-580-049 ChemDiv-V019-1762 MCULE-8391059656 PubChem-46041015 ZINC000037544724 ZINC37544724
 31 33 0 0 0
SMALL
GASTEIGER

@<TRIPOS>ATOM
      1 C          10.9224   42.4668    8.6395 C.3     1  UNL1        0.0971
      2 C          11.3659   41.8903    9.9782 C.3     1  UNL1        0.0435
      3 C          10.8714   40.4530   10.0724 C.3     1  UNL1        0.1015
      4 C          11.5410   40.2238    7.6861 C.2     1  UNL1        0.3112
      5 O          11.7366   39.4982    6.6728 O.2     1  UNL1       -0.2520
      6 N          11.4172   41.6480    7.5350 N.am    1  UNL1       -0.2596
      7 N          11.4612   39.6428    9.0043 N.am    1  UNL1       -0.2430
      8 C          12.0099   38.3450    9.3217 C.ar    1  UNL1        0.0565
      9 C          11.2100   37.3689    9.9386 C.ar    1  UNL1        0.0150
     10 C          11.7387   36.1189   10.2681 C.ar    1  UNL1        0.0026
     11 C          13.0762   35.8320    9.9894 C.ar    1  UNL1        0.0148
     12 C          13.8944   36.7934    9.3802 C.ar    1  UNL1        0.0528
     13 C          13.3551   38.0412    9.0532 C.ar    1  UNL1        0.0297
     14 C          16.3805   36.6255    9.9833 C.2     1  UNL1        0.3047
     15 O          16.2111   36.9714   11.1838 O.2     1  UNL1       -0.2525
     16 N          15.2728   36.5384    9.0784 N.am    1  UNL1       -0.2683
     17 N          17.6894   36.3071    9.5074 N.am    1  UNL1       -0.2846
     18 H          15.4799   36.2759    8.1524 H       1  UNL1        0.1564
     19 H          17.7901   35.9925    8.5800 H       1  UNL1        0.1513
     20 C          18.8814   36.4282   10.3359 C.3     1  UNL1        0.1174
     21 C          19.6484   37.6606    9.9773 C.2     1  UNL1       -0.0049
     22 C          19.0812   38.8630   10.0290 C.2     1  UNL1       -0.0032
     23 C          11.8810   42.3111    6.3238 C.3     1  UNL1        0.1218
     24 C          15.4685   42.5017    7.5357 C.ar    1  UNL1        0.1385
     25 C          15.9204   43.6443    6.8545 C.ar    1  UNL1        0.0369
     26 C          15.0612   44.3417    6.0008 C.ar    1  UNL1        0.0028
     27 C          13.7472   43.9021    5.8211 C.ar    1  UNL1       -0.0024
     28 C          13.2928   42.7615    6.4904 C.ar    1  UNL1        0.0007
     29 C          14.1516   42.0682    7.3503 C.ar    1  UNL1        0.0343
     30 C          17.7193   41.8440    8.3222 C.3     1  UNL1        0.2525
     31 O          16.3016   41.7849    8.3987 O.3     1  UNL1       -0.4714
@<TRIPOS>BOND
     1    30    31    1
     2    24    31    1
     3    25    26   ar
     4    27    28   ar
     5    23    28    1
     6    23     6    1
     7     1     6    1
     8     1     2    1
     9     2     3    1
    10     3     7    1
    11     4     6   am
    12     9    10   ar
    13    11    12   ar
    14    12    16    1
    15    14    17   am
    16    20    17    1
    17    20    21    1
    18    13     8   ar
    19    29    24   ar
    20     7     4   am
    21     7     8    1
    22    16    14   am
    23    24    25   ar
    24    26    27   ar
    25    28    29   ar
    26     4     5    2
    27     8     9   ar
    28    10    11   ar
    29    12    13   ar
    30    14    15    2
    31    21    22    2
    32    16    18    1
    33    17    19    1
@<TRIPOS>MOLECULE
MolPort-006-580-049 ChemDiv-V019-1762 MCULE-8391059656 PubChem-46041015 ZINC000037544724 ZINC37544724
 31 33 0 0 0
SMALL
GASTEIGER

@<TRIPOS>ATOM
      1 C          11.5586   40.2864    6.2620 C.3     1  UNL1        0.0971
      2 C          10.2748   39.6827    6.8176 C.3     1  UNL1        0.0435
      3 C          10.4565   39.4537    8.3121 C.3     1  UNL1        0.1015
      4 C          11.5909   41.6687    8.3622 C.2     1  UNL1        0.3112
      5 O          12.0880   42.6251    9.0176 O.2     1  UNL1       -0.2520
      6 N          11.8945   41.5227    6.9648 N.am    1  UNL1       -0.2596
      7 N          10.6995   40.7267    8.9945 N.am    1  UNL1       -0.2430
      8 C           9.9841   41.0237   10.2136 C.ar    1  UNL1        0.0565
      9 C          10.5962   40.8220   11.4616 C.ar    1  UNL1        0.0150
     10 C           9.9041   41.0866   12.6455 C.ar    1  UNL1        0.0026
     11 C           8.5885   41.5511   12.5952 C.ar    1  UNL1        0.0148
     12 C           7.9559   41.7532   11.3608 C.ar    1  UNL1        0.0528
     13 C           8.6579   41.4866   10.1815 C.ar    1  UNL1        0.0297
     14 C           5.7801   42.2410   10.0955 C.2     1  UNL1        0.3047
     15 O           6.2173   41.8232    8.9892 O.2     1  UNL1       -0.2525
     16 N           6.6061   42.2279   11.2664 N.am    1  UNL1       -0.2683
     17 N           4.4420   42.7310   10.1981 N.am    1  UNL1       -0.2846
     18 H           6.2048   42.5820   12.0927 H       1  UNL1        0.1564
     19 H           4.1073   43.0059   11.0822 H       1  UNL1        0.1513
     20 C           3.5519   42.8411    9.0504 C.3     1  UNL1        0.1174
     21 C           3.5584   44.2359    8.5115 C.2     1  UNL1       -0.0049
     22 C           4.5794   44.6891    7.7887 C.2     1  UNL1       -0.0032
     23 C          12.4411   42.6365    6.2015 C.3     1  UNL1        0.1218
     24 C          15.8444   42.1984    7.8142 C.ar    1  UNL1        0.1385
     25 C          16.5371   43.2974    7.2794 C.ar    1  UNL1        0.0369
     26 C          15.8985   44.1697    6.3935 C.ar    1  UNL1        0.0028
     27 C          14.5661   43.9493    6.0354 C.ar    1  UNL1       -0.0024
     28 C          13.8727   42.8533    6.5583 C.ar    1  UNL1        0.0007
     29 C          14.5106   41.9848    7.4507 C.ar    1  UNL1        0.0343
     30 C          15.7346   40.2890    9.3825 C.3     1  UNL1        0.2525
     31 O          16.4534   41.3104    8.7049 O.3     1  UNL1       -0.4714
@<TRIPOS>BOND
     1    30    31    1
     2    24    31    1
     3    25    26   ar
     4    27    28   ar
     5    23    28    1
     6    23     6    1
     7     1     6    1
     8     1     2    1
     9     2     3    1
    10     3     7    1
    11     4     6   am
    12     9    10   ar
    13    11    12   ar
    14    12    16    1
    15    14    17   am
    16    20    17    1
    17    20    21    1
    18    13     8   ar
    19    29    24   ar
    20     7     4   am
    21     7     8    1
    22    16    14   am
    23    24    25   ar
    24    26    27   ar
    25    28    29   ar
    26     4     5    2
    27     8     9   ar
    28    10    11   ar
    29    12    13   ar
    30    14    15    2
    31    21    22    2
    32    16    18    1
    33    17    19    1
