@<TRIPOS>MOLECULE
MolPort-028-600-077 94568761 LN01806253 MCULE-5008418291 PubChem-53404549 ZINC000094568761 ZINC94568761
 19 19 0 0 0
SMALL
GASTEIGER

@<TRIPOS>ATOM
      1 C          15.7100   43.9458    6.1132 C.ar    1  UNL1        0.1984
      2 C          14.9345   45.0017    5.6722 C.ar    1  UNL1        0.2085
      3 C          13.7193   43.2955    6.0059 C.ar    1  UNL1        0.2978
      4 O          13.7037   44.5508    5.6208 O.2     1  UNL1       -0.4201
      5 N          14.9490   42.8562    6.3287 N.ar    1  UNL1       -0.1877
      6 C          12.4414   41.3110    6.9188 C.2     1  UNL1        0.4085
      7 O          13.3993   40.9597    7.6612 O.2     1  UNL1       -0.2260
      8 N          12.5578   42.4643    6.0810 N.am    1  UNL1       -0.2047
      9 H          11.7861   42.7022    5.5178 H       1  UNL1        0.1626
     10 O          11.2463   40.5793    6.9002 O.3     1  UNL1       -0.4416
     11 C          10.2961   40.5480    7.9681 C.3     1  UNL1        0.1378
     12 C           8.8972   40.2896    7.4356 C.3     1  UNL1        0.0437
     13 C          10.3180   41.8528    8.7456 C.3     1  UNL1        0.0437
     14 C          10.6643   39.4227    8.9115 C.3     1  UNL1        0.0437
     15 C          17.1604   43.9800    6.3258 C.2     1  UNL1        0.3625
     16 O          17.9430   43.6969    5.3777 O.2     1  UNL1       -0.2431
     17 O          17.6628   44.3276    7.5811 O.3     1  UNL1       -0.4443
     18 C          17.7116   42.0847    8.4253 C.3     1  UNL1        0.0513
     19 C          17.4146   43.5372    8.7341 C.3     1  UNL1        0.2089
@<TRIPOS>BOND
     1    18    19    1
     2    19    17    1
     3    15    17    1
     4    15     1    1
     5     1     5   ar
     6     2     4   ar
     7     3     4   ar
     8     3     8    1
     9     6    10    1
    10    11    10    1
    11    11    12    1
    12    11    13    1
    13    11    14    1
    14     8     6   am
    15    15    16    2
    16     1     2   ar
    17     3     5   ar
    18     6     7    2
    19     8     9    1
@<TRIPOS>MOLECULE
MolPort-028-600-077 94568761 LN01806253 MCULE-5008418291 PubChem-53404549 ZINC000094568761 ZINC94568761
 19 19 0 0 0
SMALL
GASTEIGER

@<TRIPOS>ATOM
      1 C          14.3794   43.1519    6.5643 C.ar    1  UNL1        0.1984
      2 C          13.0755   42.9388    6.1579 C.ar    1  UNL1        0.2085
      3 C          13.6986   41.3789    7.4533 C.ar    1  UNL1        0.2978
      4 O          12.6933   41.8247    6.7357 O.2     1  UNL1       -0.4201
      5 N          14.7864   42.1675    7.3877 N.ar    1  UNL1       -0.1877
      6 C          14.7548   39.6820    9.0056 C.2     1  UNL1        0.4085
      7 O          15.8515   40.3052    9.0378 O.2     1  UNL1       -0.2260
      8 N          13.6598   40.1797    8.2317 N.am    1  UNL1       -0.2047
      9 H          12.8226   39.6617    8.2350 H       1  UNL1        0.1626
     10 O          14.5880   38.4916    9.7261 O.3     1  UNL1       -0.4416
     11 C          14.2136   38.4217   11.1042 C.3     1  UNL1        0.1378
     12 C          13.2587   39.5482   11.4598 C.3     1  UNL1        0.0437
     13 C          15.4399   38.4851   11.9983 C.3     1  UNL1        0.0437
     14 C          13.5106   37.1034   11.3491 C.3     1  UNL1        0.0437
     15 C          15.2242   44.2836    6.1697 C.2     1  UNL1        0.3625
     16 O          15.0314   44.8580    5.0632 O.2     1  UNL1       -0.2431
     17 O          16.2376   44.7162    7.0269 O.3     1  UNL1       -0.4443
     18 C          17.8568   43.5805    8.3812 C.3     1  UNL1        0.0513
     19 C          17.5334   44.1362    7.0101 C.3     1  UNL1        0.2089
@<TRIPOS>BOND
     1    18    19    1
     2    19    17    1
     3    15    17    1
     4    15     1    1
     5     1     5   ar
     6     2     4   ar
     7     3     4   ar
     8     3     8    1
     9     6    10    1
    10    11    10    1
    11    11    12    1
    12    11    13    1
    13    11    14    1
    14     8     6   am
    15    15    16    2
    16     1     2   ar
    17     3     5   ar
    18     6     7    2
    19     8     9    1
@<TRIPOS>MOLECULE
MolPort-028-600-077 94568761 LN01806253 MCULE-5008418291 PubChem-53404549 ZINC000094568761 ZINC94568761
 19 19 0 0 0
SMALL
GASTEIGER

@<TRIPOS>ATOM
      1 C          14.0745   43.1220    6.4026 C.ar    1  UNL1        0.1984
      2 C          14.3217   41.9757    7.1345 C.ar    1  UNL1        0.2085
      3 C          12.2553   42.1156    6.6763 C.ar    1  UNL1        0.2978
      4 O          13.1612   41.3815    7.2804 O.2     1  UNL1       -0.4201
      5 N          12.7651   43.2218    6.1055 N.ar    1  UNL1       -0.1877
      6 C          10.2560   41.0162    5.5814 C.2     1  UNL1        0.4085
      7 O          10.9493   40.5694    4.6265 O.2     1  UNL1       -0.2260
      8 N          10.8641   41.7886    6.6203 N.am    1  UNL1       -0.2047
      9 H          10.2859   42.1174    7.3461 H       1  UNL1        0.1626
     10 O           8.8787   40.7652    5.6431 O.3     1  UNL1       -0.4416
     11 C           8.2480   39.9285    6.6159 C.3     1  UNL1        0.1378
     12 C           6.8553   39.5291    6.1599 C.3     1  UNL1        0.0437
     13 C           8.1674   40.6328    7.9594 C.3     1  UNL1        0.0437
     14 C           9.0754   38.6717    6.7836 C.3     1  UNL1        0.0437
     15 C          15.0789   44.1085    5.9928 C.2     1  UNL1        0.3625
     16 O          15.1022   44.5269    4.8028 O.2     1  UNL1       -0.2431
     17 O          16.0033   44.5772    6.9280 O.3     1  UNL1       -0.4443
     18 C          17.6554   43.6307    8.3841 C.3     1  UNL1        0.0513
     19 C          17.3355   44.0886    6.9766 C.3     1  UNL1        0.2089
@<TRIPOS>BOND
     1    18    19    1
     2    19    17    1
     3    15    17    1
     4    15     1    1
     5     1     5   ar
     6     2     4   ar
     7     3     4   ar
     8     3     8    1
     9     6    10    1
    10    11    10    1
    11    11    12    1
    12    11    13    1
    13    11    14    1
    14     8     6   am
    15    15    16    2
    16     1     2   ar
    17     3     5   ar
    18     6     7    2
    19     8     9    1
@<TRIPOS>MOLECULE
MolPort-028-600-077 94568761 LN01806253 MCULE-5008418291 PubChem-53404549 ZINC000094568761 ZINC94568761
 19 19 0 0 0
SMALL
GASTEIGER

@<TRIPOS>ATOM
      1 C          15.0023   43.5562    6.3758 C.ar    1  UNL1        0.1984
      2 C          13.7587   43.8785    5.8656 C.ar    1  UNL1        0.2085
      3 C          13.6607   42.0371    6.9140 C.ar    1  UNL1        0.2978
      4 O          12.9560   42.9051    6.2253 O.2     1  UNL1       -0.4201
      5 N          14.9526   42.3884    7.0440 N.ar    1  UNL1       -0.1877
      6 C          13.7908   40.0384    8.4609 C.2     1  UNL1        0.4085
      7 O          14.9265   40.3740    8.8964 O.2     1  UNL1       -0.2260
      8 N          13.1267   40.8354    7.4763 N.am    1  UNL1       -0.2047
      9 H          12.2420   40.5365    7.1645 H       1  UNL1        0.1626
     10 O          13.1584   38.8800    8.9323 O.3     1  UNL1       -0.4416
     11 C          12.5567   38.7506   10.2228 C.3     1  UNL1        0.1378
     12 C          13.5240   39.1797   11.3125 C.3     1  UNL1        0.0437
     13 C          12.1091   37.3196   10.4662 C.3     1  UNL1        0.0437
     14 C          11.3397   39.6492   10.2823 C.3     1  UNL1        0.0437
     15 C          16.2219   44.3562    6.2259 C.2     1  UNL1        0.3625
     16 O          16.1524   45.5326    5.7753 O.2     1  UNL1       -0.2431
     17 O          17.4534   43.8057    6.5856 O.3     1  UNL1       -0.4443
     18 C          17.8832   42.3652    8.4526 C.3     1  UNL1        0.0513
     19 C          17.9027   43.7872    7.9322 C.3     1  UNL1        0.2089
@<TRIPOS>BOND
     1    18    19    1
     2    19    17    1
     3    15    17    1
     4    15     1    1
     5     1     5   ar
     6     2     4   ar
     7     3     4   ar
     8     3     8    1
     9     6    10    1
    10    11    10    1
    11    11    12    1
    12    11    13    1
    13    11    14    1
    14     8     6   am
    15    15    16    2
    16     1     2   ar
    17     3     5   ar
    18     6     7    2
    19     8     9    1
@<TRIPOS>MOLECULE
MolPort-028-600-077 94568761 LN01806253 MCULE-5008418291 PubChem-53404549 ZINC000094568761 ZINC94568761
 19 19 0 0 0
SMALL
GASTEIGER

@<TRIPOS>ATOM
      1 C          13.1330   42.2438    6.5865 C.ar    1  UNL1        0.1984
      2 C          11.8051   42.1652    6.2108 C.ar    1  UNL1        0.2085
      3 C          12.3780   40.3977    7.2340 C.ar    1  UNL1        0.2978
      4 O          11.3768   40.9999    6.6346 O.2     1  UNL1       -0.4201
      5 N          13.5085   41.1266    7.2375 N.ar    1  UNL1       -0.1877
      6 C          12.1596   38.8599    9.2320 C.2     1  UNL1        0.4085
      7 O          12.1066   39.8243   10.0439 O.2     1  UNL1       -0.2260
      8 N          12.2942   39.0996    7.8284 N.am    1  UNL1       -0.2047
      9 H          12.3316   38.3180    7.2309 H       1  UNL1        0.1626
     10 O          12.0879   37.5369    9.6885 O.3     1  UNL1       -0.4416
     11 C          13.2198   36.7327   10.0299 C.3     1  UNL1        0.1378
     12 C          13.7883   37.1484   11.3757 C.3     1  UNL1        0.0437
     13 C          14.2953   36.8375    8.9623 C.3     1  UNL1        0.0437
     14 C          12.7773   35.2879   10.1231 C.3     1  UNL1        0.0437
     15 C          14.0303   43.3738    6.3260 C.2     1  UNL1        0.3625
     16 O          13.6417   44.3338    5.6055 O.2     1  UNL1       -0.2431
     17 O          15.3113   43.3763    6.8811 O.3     1  UNL1       -0.4443
     18 C          17.5731   44.0800    7.2475 C.3     1  UNL1        0.0513
     19 C          16.2290   44.4338    6.6464 C.3     1  UNL1        0.2089
@<TRIPOS>BOND
     1    18    19    1
     2    19    17    1
     3    15    17    1
     4    15     1    1
     5     1     5   ar
     6     2     4   ar
     7     3     4   ar
     8     3     8    1
     9     6    10    1
    10    11    10    1
    11    11    12    1
    12    11    13    1
    13    11    14    1
    14     8     6   am
    15    15    16    2
    16     1     2   ar
    17     3     5   ar
    18     6     7    2
    19     8     9    1
@<TRIPOS>MOLECULE
MolPort-028-600-077 94568761 LN01806253 MCULE-5008418291 PubChem-53404549 ZINC000094568761 ZINC94568761
 19 19 0 0 0
SMALL
GASTEIGER

@<TRIPOS>ATOM
      1 C          13.4245   42.5077    6.7387 C.ar    1  UNL1        0.1984
      2 C          13.8277   41.4155    7.4838 C.ar    1  UNL1        0.2085
      3 C          11.7128   41.4472    7.3240 C.ar    1  UNL1        0.2978
      4 O          12.7294   40.7851    7.8264 O.2     1  UNL1       -0.4201
      5 N          12.0828   42.5385    6.6301 N.ar    1  UNL1       -0.1877
      6 C           9.6159   41.1677    8.7132 C.2     1  UNL1        0.4085
      7 O          10.1706   41.6239    9.7507 O.2     1  UNL1       -0.2260
      8 N          10.3449   41.0626    7.4871 N.am    1  UNL1       -0.2047
      9 H           9.8732   40.7011    6.7023 H       1  UNL1        0.1626
     10 O           8.2768   40.7554    8.7413 O.3     1  UNL1       -0.4416
     11 C           7.1623   41.6276    8.9444 C.3     1  UNL1        0.1378
     12 C           5.9158   41.0712    8.2782 C.3     1  UNL1        0.0437
     13 C           7.4597   43.0151    8.4023 C.3     1  UNL1        0.0437
     14 C           6.9002   41.7409   10.4311 C.3     1  UNL1        0.0437
     15 C          14.3122   43.5084    6.1381 C.2     1  UNL1        0.3625
     16 O          13.8279   44.4473    5.4485 O.2     1  UNL1       -0.2431
     17 O          15.6906   43.4117    6.3369 O.3     1  UNL1       -0.4443
     18 C          17.8510   44.1163    7.0997 C.3     1  UNL1        0.0513
     19 C          16.4947   44.5546    6.5882 C.3     1  UNL1        0.2089
@<TRIPOS>BOND
     1    18    19    1
     2    19    17    1
     3    15    17    1
     4    15     1    1
     5     1     5   ar
     6     2     4   ar
     7     3     4   ar
     8     3     8    1
     9     6    10    1
    10    11    10    1
    11    11    12    1
    12    11    13    1
    13    11    14    1
    14     8     6   am
    15    15    16    2
    16     1     2   ar
    17     3     5   ar
    18     6     7    2
    19     8     9    1
@<TRIPOS>MOLECULE
MolPort-028-600-077 94568761 LN01806253 MCULE-5008418291 PubChem-53404549 ZINC000094568761 ZINC94568761
 19 19 0 0 0
SMALL
GASTEIGER

@<TRIPOS>ATOM
      1 C           8.2390   43.4092    9.2859 C.ar    1  UNL1        0.1984
      2 C           8.7835   44.4951    9.9455 C.ar    1  UNL1        0.2085
      3 C          10.2700   43.0154    9.6285 C.ar    1  UNL1        0.2978
      4 O          10.0485   44.2054   10.1377 O.2     1  UNL1       -0.4201
      5 N           9.1738   42.4626    9.0788 N.ar    1  UNL1       -0.1877
      6 C          11.7732   41.0646   10.2112 C.2     1  UNL1        0.4085
      7 O          10.8284   40.4175   10.7408 O.2     1  UNL1       -0.2260
      8 N          11.5400   42.3581    9.6469 N.am    1  UNL1       -0.2047
      9 H          12.3057   42.8278    9.2439 H       1  UNL1        0.1626
     10 O          13.0679   40.5301   10.1652 O.3     1  UNL1       -0.4416
     11 C          13.7169   40.0742    8.9756 C.3     1  UNL1        0.1378
     12 C          14.9908   39.3192    9.3137 C.3     1  UNL1        0.0437
     13 C          14.0385   41.2411    8.0578 C.3     1  UNL1        0.0437
     14 C          12.7830   39.1335    8.2441 C.3     1  UNL1        0.0437
     15 C           6.8421   43.2800    8.8592 C.2     1  UNL1        0.3625
     16 O           6.3683   42.1421    8.5900 O.2     1  UNL1       -0.2431
     17 O           6.0469   44.4226    8.7551 O.3     1  UNL1       -0.4443
     18 C           3.8191   44.8041    7.9572 C.3     1  UNL1        0.0513
     19 C           5.2849   44.7032    7.5905 C.3     1  UNL1        0.2089
@<TRIPOS>BOND
     1    18    19    1
     2    19    17    1
     3    15    17    1
     4    15     1    1
     5     1     5   ar
     6     2     4   ar
     7     3     4   ar
     8     3     8    1
     9     6    10    1
    10    11    10    1
    11    11    12    1
    12    11    13    1
    13    11    14    1
    14     8     6   am
    15    15    16    2
    16     1     2   ar
    17     3     5   ar
    18     6     7    2
    19     8     9    1
@<TRIPOS>MOLECULE
MolPort-028-600-077 94568761 LN01806253 MCULE-5008418291 PubChem-53404549 ZINC000094568761 ZINC94568761
 19 19 0 0 0
SMALL
GASTEIGER

@<TRIPOS>ATOM
      1 C          14.1192   41.7447    7.5521 C.ar    1  UNL1        0.1984
      2 C          14.3670   42.6396    6.5282 C.ar    1  UNL1        0.2085
      3 C          12.3216   42.0777    6.5251 C.ar    1  UNL1        0.2978
      4 O          13.2201   42.8171    5.9165 O.2     1  UNL1       -0.4201
      5 N          12.8230   41.3805    7.5604 N.ar    1  UNL1       -0.1877
      6 C          10.2444   40.7931    5.8620 C.2     1  UNL1        0.4085
      7 O          10.8333   39.6803    5.9454 O.2     1  UNL1       -0.2260
      8 N          10.9456   42.0080    6.1411 N.am    1  UNL1       -0.2047
      9 H          10.4474   42.8536    6.0637 H       1  UNL1        0.1626
     10 O           8.8937   40.8609    5.4946 O.3     1  UNL1       -0.4416
     11 C           7.7986   40.8117    6.4125 C.3     1  UNL1        0.1378
     12 C           6.9175   39.6061    6.1343 C.3     1  UNL1        0.0437
     13 C           6.9715   42.0832    6.3313 C.3     1  UNL1        0.0437
     14 C           8.3490   40.6880    7.8174 C.3     1  UNL1        0.0437
     15 C          15.1105   41.2453    8.5103 C.2     1  UNL1        0.3625
     16 O          14.7471   40.5032    9.4636 O.2     1  UNL1       -0.2431
     17 O          16.4527   41.5973    8.3567 O.3     1  UNL1       -0.4443
     18 C          17.5736   43.6565    8.8552 C.3     1  UNL1        0.0513
     19 C          16.8428   42.8460    7.8053 C.3     1  UNL1        0.2089
@<TRIPOS>BOND
     1    18    19    1
     2    19    17    1
     3    15    17    1
     4    15     1    1
     5     1     5   ar
     6     2     4   ar
     7     3     4   ar
     8     3     8    1
     9     6    10    1
    10    11    10    1
    11    11    12    1
    12    11    13    1
    13    11    14    1
    14     8     6   am
    15    15    16    2
    16     1     2   ar
    17     3     5   ar
    18     6     7    2
    19     8     9    1
@<TRIPOS>MOLECULE
MolPort-028-600-077 94568761 LN01806253 MCULE-5008418291 PubChem-53404549 ZINC000094568761 ZINC94568761
 19 19 0 0 0
SMALL
GASTEIGER

@<TRIPOS>ATOM
      1 C          13.7939   40.3645    9.7236 C.ar    1  UNL1        0.1984
      2 C          13.3868   39.8509   10.9406 C.ar    1  UNL1        0.2085
      3 C          11.7679   40.8363    9.9879 C.ar    1  UNL1        0.2978
      4 O          12.1198   40.1685   11.0625 O.2     1  UNL1       -0.4201
      5 N          12.7739   40.9927    9.1089 N.ar    1  UNL1       -0.1877
      6 C          10.1212   42.7431    9.7492 C.2     1  UNL1        0.4085
      7 O          11.0099   43.6152    9.9530 O.2     1  UNL1       -0.2260
      8 N          10.4539   41.3521    9.7578 N.am    1  UNL1       -0.2047
      9 H           9.7294   40.7059    9.5943 H       1  UNL1        0.1626
     10 O           8.7924   43.1192    9.5108 O.3     1  UNL1       -0.4416
     11 C           7.9882   42.6249    8.4370 C.3     1  UNL1        0.1378
     12 C           7.1200   41.4690    8.9033 C.3     1  UNL1        0.0437
     13 C           8.8587   42.1785    7.2749 C.3     1  UNL1        0.0437
     14 C           7.0833   43.7394    7.9564 C.3     1  UNL1        0.0437
     15 C          15.1416   40.2547    9.1565 C.2     1  UNL1        0.3625
     16 O          15.6291   41.2155    8.5000 O.2     1  UNL1       -0.2431
     17 O          15.8752   39.0828    9.3501 O.3     1  UNL1       -0.4443
     18 C          16.5979   38.0201   11.3735 C.3     1  UNL1        0.0513
     19 C          16.9437   39.0116   10.2823 C.3     1  UNL1        0.2089
@<TRIPOS>BOND
     1    18    19    1
     2    19    17    1
     3    15    17    1
     4    15     1    1
     5     1     5   ar
     6     2     4   ar
     7     3     4   ar
     8     3     8    1
     9     6    10    1
    10    11    10    1
    11    11    12    1
    12    11    13    1
    13    11    14    1
    14     8     6   am
    15    15    16    2
    16     1     2   ar
    17     3     5   ar
    18     6     7    2
    19     8     9    1
@<TRIPOS>MOLECULE
MolPort-028-600-077 94568761 LN01806253 MCULE-5008418291 PubChem-53404549 ZINC000094568761 ZINC94568761
 19 19 0 0 0
SMALL
GASTEIGER

@<TRIPOS>ATOM
      1 C          15.4876   41.6757    8.0994 C.ar    1  UNL1        0.1984
      2 C          14.2970   42.0003    7.4766 C.ar    1  UNL1        0.2085
      3 C          14.0536   40.2460    8.6441 C.ar    1  UNL1        0.2978
      4 O          13.4338   41.0834    7.8446 O.2     1  UNL1       -0.4201
      5 N          15.3454   40.5630    8.8440 N.ar    1  UNL1       -0.1877
      6 C          13.4545   38.8274   10.6523 C.2     1  UNL1        0.4085
      7 O          14.0437   39.6049   11.4525 O.2     1  UNL1       -0.2260
      8 N          13.4349   39.1078    9.2499 N.am    1  UNL1       -0.2047
      9 H          12.9636   38.4743    8.6618 H       1  UNL1        0.1626
     10 O          12.8085   37.6753   11.1208 O.3     1  UNL1       -0.4416
     11 C          12.2723   36.6474   10.2841 C.3     1  UNL1        0.1378
     12 C          11.6767   35.5287   11.1213 C.3     1  UNL1        0.0437
     13 C          13.3449   36.0877    9.3656 C.3     1  UNL1        0.0437
     14 C          11.1734   37.2423    9.4294 C.3     1  UNL1        0.0437
     15 C          16.7447   42.4216    7.9833 C.2     1  UNL1        0.3625
     16 O          17.8475   41.8158    8.0759 O.2     1  UNL1       -0.2431
     17 O          16.7083   43.8008    7.7700 O.3     1  UNL1       -0.4443
     18 C          15.6259   45.0087    6.0051 C.3     1  UNL1        0.0513
     19 C          16.9113   44.3670    6.4840 C.3     1  UNL1        0.2089
@<TRIPOS>BOND
     1    18    19    1
     2    19    17    1
     3    15    17    1
     4    15     1    1
     5     1     5   ar
     6     2     4   ar
     7     3     4   ar
     8     3     8    1
     9     6    10    1
    10    11    10    1
    11    11    12    1
    12    11    13    1
    13    11    14    1
    14     8     6   am
    15    15    16    2
    16     1     2   ar
    17     3     5   ar
    18     6     7    2
    19     8     9    1
