@<TRIPOS>MOLECULE
MolPort-001-990-945 94430 CSSS00132532034 LN00558978 MCULE-4341930781 PubChem-707292 ZINC000000094430 ZINC00094430
 20 20 0 0 0
SMALL
GASTEIGER

@<TRIPOS>ATOM
      1 C          14.1946   41.5330    8.0872 C.ar    1  UNL1        0.1394
      2 C          14.7813   40.7417    9.0653 C.ar    1  UNL1        0.0153
      3 C          14.1245   39.6990    9.9059 C.3     1  UNL1        0.0341
      4 C          16.1183   41.0699    9.0916 C.ar    1  UNL1        0.0601
      5 C          16.3074   42.0770    8.1590 C.ar    1  UNL1        0.0576
      6 C          17.5532   42.8873    7.9991 C.3     1  UNL1        0.0518
      7 C          14.9136   43.4125    6.5911 C.2     1  UNL1        0.2417
      8 C          15.9046   43.6844    5.5117 C.3     1  UNL1        0.0983
      9 O          13.8854   44.1355    6.6694 O.2     1  UNL1       -0.2716
     10 N          15.1324   42.3546    7.5423 N.ar    1  UNL1       -0.2750
     11 C          17.5693   39.1955   10.0191 C.2     1  UNL1        0.2266
     12 C          18.7499   38.8532   10.8536 C.3     1  UNL1        0.0949
     13 O          16.9879   38.2893    9.3662 O.2     1  UNL1       -0.2748
     14 N          17.0724   40.5364   10.0198 N.am    1  UNL1       -0.2832
     15 H          17.4137   41.1439   10.7153 H       1  UNL1        0.1549
     16 C          12.7781   41.4451    7.6667 C.2     1  UNL1        0.3574
     17 O          12.4184   40.5812    6.8216 O.2     1  UNL1       -0.2433
     18 O          11.8328   42.3014    8.2356 O.3     1  UNL1       -0.4444
     19 C          10.5983   43.3177   10.0210 C.3     1  UNL1        0.0513
     20 C          11.2734   42.0591    9.5177 C.3     1  UNL1        0.2089
@<TRIPOS>BOND
     1    19    20    1
     2    20    18    1
     3    16    18    1
     4    16     1    1
     5     2     4   ar
     6     3     2    1
     7     4    14    1
     8    12    11    1
     9     5    10   ar
    10     6     5    1
    11     8     7    1
    12    14    11   am
    13    10     7   am
    14    10     1   ar
    15    16    17    2
    16     1     2   ar
    17     4     5   ar
    18    11    13    2
    19     7     9    2
    20    14    15    1
@<TRIPOS>MOLECULE
MolPort-001-990-945 94430 CSSS00132532034 LN00558978 MCULE-4341930781 PubChem-707292 ZINC000000094430 ZINC00094430
 20 20 0 0 0
SMALL
GASTEIGER

@<TRIPOS>ATOM
      1 C          13.3739   40.9932    7.7712 C.ar    1  UNL1        0.1394
      2 C          13.6755   39.8801    8.5439 C.ar    1  UNL1        0.0153
      3 C          12.7776   38.7379    8.8821 C.3     1  UNL1        0.0341
      4 C          14.9956   40.0015    8.9157 C.ar    1  UNL1        0.0601
      5 C          15.4555   41.2003    8.3949 C.ar    1  UNL1        0.0576
      6 C          16.7626   41.8448    8.7269 C.3     1  UNL1        0.0518
      7 C          14.5355   43.1097    7.0941 C.2     1  UNL1        0.2417
      8 C          15.7536   43.5456    6.3541 C.3     1  UNL1        0.0983
      9 O          13.5709   43.9118    7.2041 O.2     1  UNL1       -0.2716
     10 N          14.4651   41.8019    7.6912 N.ar    1  UNL1       -0.2750
     11 C          15.2812   38.7602   11.1196 C.2     1  UNL1        0.2266
     12 C          15.9222   37.6106   11.8087 C.3     1  UNL1        0.0949
     13 O          14.4318   39.4568   11.7351 O.2     1  UNL1       -0.2748
     14 N          15.6848   39.0971    9.7897 N.am    1  UNL1       -0.2832
     15 H          16.5038   38.6729    9.4455 H       1  UNL1        0.1549
     16 C          12.0791   41.2246    7.0922 C.2     1  UNL1        0.3574
     17 O          11.1720   41.8892    7.6628 O.2     1  UNL1       -0.2433
     18 O          11.8771   40.7328    5.8008 O.3     1  UNL1       -0.4444
     19 C          10.6538   39.8976    3.9166 C.3     1  UNL1        0.0513
     20 C          10.6643   40.1026    5.4169 C.3     1  UNL1        0.2089
@<TRIPOS>BOND
     1    19    20    1
     2    20    18    1
     3    16    18    1
     4    16     1    1
     5     2     4   ar
     6     3     2    1
     7     4    14    1
     8    12    11    1
     9     5    10   ar
    10     6     5    1
    11     8     7    1
    12    14    11   am
    13    10     7   am
    14    10     1   ar
    15    16    17    2
    16     1     2   ar
    17     4     5   ar
    18    11    13    2
    19     7     9    2
    20    14    15    1
@<TRIPOS>MOLECULE
MolPort-001-990-945 94430 CSSS00132532034 LN00558978 MCULE-4341930781 PubChem-707292 ZINC000000094430 ZINC00094430
 20 20 0 0 0
SMALL
GASTEIGER

@<TRIPOS>ATOM
      1 C          13.1469   40.1989    9.8902 C.ar    1  UNL1        0.1394
      2 C          14.1861   39.6110   10.5984 C.ar    1  UNL1        0.0153
      3 C          14.0824   38.6623   11.7449 C.3     1  UNL1        0.0341
      4 C          15.3566   40.0374   10.0121 C.ar    1  UNL1        0.0601
      5 C          15.0060   40.9024    8.9880 C.ar    1  UNL1        0.0576
      6 C          15.9535   41.7691    8.2231 C.3     1  UNL1        0.0518
      7 C          12.9234   41.8773    8.0407 C.2     1  UNL1        0.2417
      8 C          13.3300   42.0547    6.6180 C.3     1  UNL1        0.0983
      9 O          11.9358   42.5257    8.4768 O.2     1  UNL1       -0.2716
     10 N          13.6555   40.9953    8.9113 N.ar    1  UNL1       -0.2750
     11 C          17.4615   38.6074   10.0710 C.2     1  UNL1        0.2266
     12 C          18.9012   38.5536   10.4339 C.3     1  UNL1        0.0949
     13 O          16.9428   37.6439    9.4480 O.2     1  UNL1       -0.2748
     14 N          16.6716   39.7233   10.4902 N.am    1  UNL1       -0.2832
     15 H          17.0632   40.3261   11.1629 H       1  UNL1        0.1549
     16 C          11.7091   39.9435   10.1320 C.2     1  UNL1        0.3574
     17 O          11.1052   40.5413   11.0637 O.2     1  UNL1       -0.2433
     18 O          11.0134   39.0621    9.3015 O.3     1  UNL1       -0.4444
     19 C           9.4758   38.3303    7.6150 C.3     1  UNL1        0.0513
     20 C          10.0728   39.5177    8.3408 C.3     1  UNL1        0.2089
@<TRIPOS>BOND
     1    19    20    1
     2    20    18    1
     3    16    18    1
     4    16     1    1
     5     2     4   ar
     6     3     2    1
     7     4    14    1
     8    12    11    1
     9     5    10   ar
    10     6     5    1
    11     8     7    1
    12    14    11   am
    13    10     7   am
    14    10     1   ar
    15    16    17    2
    16     1     2   ar
    17     4     5   ar
    18    11    13    2
    19     7     9    2
    20    14    15    1
@<TRIPOS>MOLECULE
MolPort-001-990-945 94430 CSSS00132532034 LN00558978 MCULE-4341930781 PubChem-707292 ZINC000000094430 ZINC00094430
 20 20 0 0 0
SMALL
GASTEIGER

@<TRIPOS>ATOM
      1 C          12.9485   41.0400    7.4822 C.ar    1  UNL1        0.1394
      2 C          13.0712   39.9027    8.2686 C.ar    1  UNL1        0.0153
      3 C          12.0502   38.8387    8.4938 C.3     1  UNL1        0.0341
      4 C          14.3490   39.9113    8.7814 C.ar    1  UNL1        0.0601
      5 C          14.9605   41.0691    8.3283 C.ar    1  UNL1        0.0576
      6 C          16.2731   41.6002    8.8068 C.3     1  UNL1        0.0518
      7 C          14.3484   43.0539    6.9606 C.2     1  UNL1        0.2417
      8 C          15.6713   43.3885    6.3613 C.3     1  UNL1        0.0983
      9 O          13.4476   43.9338    6.9766 O.2     1  UNL1       -0.2716
     10 N          14.1054   41.7544    7.5300 N.ar    1  UNL1       -0.2750
     11 C          14.3889   38.7535   11.0480 C.2     1  UNL1        0.2266
     12 C          14.8154   37.5487   11.8054 C.3     1  UNL1        0.0949
     13 O          13.6623   39.6145   11.6105 O.2     1  UNL1       -0.2748
     14 N          14.8620   38.9490    9.7127 N.am    1  UNL1       -0.2832
     15 H          15.6015   38.3751    9.4074 H       1  UNL1        0.1549
     16 C          11.7584   41.3819    6.6710 C.2     1  UNL1        0.3574
     17 O          11.7219   41.0948    5.4437 O.2     1  UNL1       -0.2433
     18 O          10.6596   41.9941    7.2780 O.3     1  UNL1       -0.4444
     19 C           8.8174   40.6212    7.9605 C.3     1  UNL1        0.0513
     20 C           9.3248   41.6341    6.9556 C.3     1  UNL1        0.2089
@<TRIPOS>BOND
     1    19    20    1
     2    20    18    1
     3    16    18    1
     4    16     1    1
     5     2     4   ar
     6     3     2    1
     7     4    14    1
     8    12    11    1
     9     5    10   ar
    10     6     5    1
    11     8     7    1
    12    14    11   am
    13    10     7   am
    14    10     1   ar
    15    16    17    2
    16     1     2   ar
    17     4     5   ar
    18    11    13    2
    19     7     9    2
    20    14    15    1
@<TRIPOS>MOLECULE
MolPort-001-990-945 94430 CSSS00132532034 LN00558978 MCULE-4341930781 PubChem-707292 ZINC000000094430 ZINC00094430
 20 20 0 0 0
SMALL
GASTEIGER

@<TRIPOS>ATOM
      1 C          15.3092   39.7043    9.7310 C.ar    1  UNL1        0.1394
      2 C          13.9718   39.4798    9.4341 C.ar    1  UNL1        0.0153
      3 C          13.0904   38.4019    9.9695 C.3     1  UNL1        0.0341
      4 C          13.5845   40.4788    8.5695 C.ar    1  UNL1        0.0601
      5 C          14.7007   41.2640    8.3303 C.ar    1  UNL1        0.0576
      6 C          14.8027   42.3309    7.2885 C.3     1  UNL1        0.0518
      7 C          17.1028   41.2846    8.9738 C.2     1  UNL1        0.2417
      8 C          17.3806   42.7484    8.9380 C.3     1  UNL1        0.0983
      9 O          18.0706   40.4802    8.9239 O.2     1  UNL1       -0.2716
     10 N          15.7519   40.7928    9.0452 N.ar    1  UNL1       -0.2750
     11 C          11.3020   41.5595    8.2502 C.2     1  UNL1        0.2266
     12 C          10.1275   41.7087    7.3528 C.3     1  UNL1        0.0949
     13 O          11.3819   42.2659    9.2896 O.2     1  UNL1       -0.2748
     14 N          12.2924   40.5713    7.9542 N.am    1  UNL1       -0.2832
     15 H          12.0687   39.8986    7.2711 H       1  UNL1        0.1549
     16 C          16.1053   38.9116   10.6948 C.2     1  UNL1        0.3574
     17 O          16.5862   39.4590   11.7240 O.2     1  UNL1       -0.2433
     18 O          16.2939   37.5449   10.4780 O.3     1  UNL1       -0.4444
     19 C          18.6159   36.9594   10.3773 C.3     1  UNL1        0.0513
     20 C          17.3097   37.0530    9.6168 C.3     1  UNL1        0.2089
@<TRIPOS>BOND
     1    19    20    1
     2    20    18    1
     3    16    18    1
     4    16     1    1
     5     2     4   ar
     6     3     2    1
     7     4    14    1
     8    12    11    1
     9     5    10   ar
    10     6     5    1
    11     8     7    1
    12    14    11   am
    13    10     7   am
    14    10     1   ar
    15    16    17    2
    16     1     2   ar
    17     4     5   ar
    18    11    13    2
    19     7     9    2
    20    14    15    1
@<TRIPOS>MOLECULE
MolPort-001-990-945 94430 CSSS00132532034 LN00558978 MCULE-4341930781 PubChem-707292 ZINC000000094430 ZINC00094430
 20 20 0 0 0
SMALL
GASTEIGER

@<TRIPOS>ATOM
      1 C          10.6357   40.6880    7.7948 C.ar    1  UNL1        0.1394
      2 C          11.0156   41.4048    6.6684 C.ar    1  UNL1        0.0153
      3 C          10.1403   41.8925    5.5633 C.3     1  UNL1        0.0341
      4 C          12.3701   41.6268    6.7778 C.ar    1  UNL1        0.0601
      5 C          12.7896   41.0093    7.9451 C.ar    1  UNL1        0.0576
      6 C          14.2125   40.8065    8.3551 C.3     1  UNL1        0.0518
      7 C          11.7881   39.6236    9.7510 C.2     1  UNL1        0.2417
      8 C          12.6553   40.0082   10.9004 C.3     1  UNL1        0.0983
      9 O          11.1184   38.5594    9.8234 O.2     1  UNL1       -0.2716
     10 N          11.7277   40.4413    8.5680 N.ar    1  UNL1       -0.2750
     11 C          13.9551   43.4505    5.9773 C.2     1  UNL1        0.2266
     12 C          14.9529   43.8484    4.9510 C.3     1  UNL1        0.0949
     13 O          13.7685   44.1893    6.9798 O.2     1  UNL1       -0.2748
     14 N          13.1762   42.2676    5.7798 N.am    1  UNL1       -0.2832
     15 H          13.1950   41.8592    4.8842 H       1  UNL1        0.1549
     16 C           9.2436   40.3085    8.1250 C.2     1  UNL1        0.3574
     17 O           8.5562   41.0262    8.9013 O.2     1  UNL1       -0.2433
     18 O           8.6808   39.1691    7.5459 O.3     1  UNL1       -0.4444
     19 C           6.6736   39.6411    6.3242 C.3     1  UNL1        0.0513
     20 C           8.1162   39.1877    6.2435 C.3     1  UNL1        0.2089
@<TRIPOS>BOND
     1    19    20    1
     2    20    18    1
     3    16    18    1
     4    16     1    1
     5     2     4   ar
     6     3     2    1
     7     4    14    1
     8    12    11    1
     9     5    10   ar
    10     6     5    1
    11     8     7    1
    12    14    11   am
    13    10     7   am
    14    10     1   ar
    15    16    17    2
    16     1     2   ar
    17     4     5   ar
    18    11    13    2
    19     7     9    2
    20    14    15    1
@<TRIPOS>MOLECULE
MolPort-001-990-945 94430 CSSS00132532034 LN00558978 MCULE-4341930781 PubChem-707292 ZINC000000094430 ZINC00094430
 20 20 0 0 0
SMALL
GASTEIGER

@<TRIPOS>ATOM
      1 C          14.8114   40.5006    8.8583 C.ar    1  UNL1        0.1394
      2 C          13.4911   40.5081    8.4295 C.ar    1  UNL1        0.0153
      3 C          12.4415   39.4832    8.7004 C.3     1  UNL1        0.0341
      4 C          13.3085   41.6791    7.7287 C.ar    1  UNL1        0.0601
      5 C          14.5274   42.3377    7.7140 C.ar    1  UNL1        0.0576
      6 C          14.8532   43.5394    6.8870 C.3     1  UNL1        0.0518
      7 C          16.8431   41.9320    8.5249 C.2     1  UNL1        0.2417
      8 C          17.2942   43.3314    8.7683 C.3     1  UNL1        0.0983
      9 O          17.7092   41.0257    8.4047 O.2     1  UNL1       -0.2716
     10 N          15.4429   41.6191    8.4095 N.ar    1  UNL1       -0.2750
     11 C          11.4343   41.2503    6.0605 C.2     1  UNL1        0.2266
     12 C          10.0570   41.6143    5.6388 C.3     1  UNL1        0.0949
     13 O          12.0178   40.2830    5.5042 O.2     1  UNL1       -0.2748
     14 N          12.1007   42.0431    7.0466 N.am    1  UNL1       -0.2832
     15 H          11.6967   42.9111    7.2763 H       1  UNL1        0.1549
     16 C          15.4131   39.4605    9.7226 C.2     1  UNL1        0.3574
     17 O          16.0966   38.5300    9.2156 O.2     1  UNL1       -0.2433
     18 O          15.2498   39.5321   11.1078 O.3     1  UNL1       -0.4444
     19 C          14.1687   37.4500   11.5982 C.3     1  UNL1        0.0513
     20 C          14.1313   38.9547   11.7643 C.3     1  UNL1        0.2089
@<TRIPOS>BOND
     1    19    20    1
     2    20    18    1
     3    16    18    1
     4    16     1    1
     5     2     4   ar
     6     3     2    1
     7     4    14    1
     8    12    11    1
     9     5    10   ar
    10     6     5    1
    11     8     7    1
    12    14    11   am
    13    10     7   am
    14    10     1   ar
    15    16    17    2
    16     1     2   ar
    17     4     5   ar
    18    11    13    2
    19     7     9    2
    20    14    15    1
@<TRIPOS>MOLECULE
MolPort-001-990-945 94430 CSSS00132532034 LN00558978 MCULE-4341930781 PubChem-707292 ZINC000000094430 ZINC00094430
 20 20 0 0 0
SMALL
GASTEIGER

@<TRIPOS>ATOM
      1 C          15.7991   40.9101    8.8846 C.ar    1  UNL1        0.1394
      2 C          14.5993   41.2374    8.2679 C.ar    1  UNL1        0.0153
      3 C          14.3234   42.4006    7.3756 C.3     1  UNL1        0.0341
      4 C          13.6999   40.2495    8.6010 C.ar    1  UNL1        0.0601
      5 C          14.3592   39.3668    9.4412 C.ar    1  UNL1        0.0576
      6 C          13.7146   38.2651   10.2188 C.3     1  UNL1        0.0518
      7 C          16.6030   39.1635   10.4942 C.2     1  UNL1        0.2417
      8 C          16.7251   37.6812   10.5881 C.3     1  UNL1        0.0983
      9 O          17.3435   39.8820   11.2163 O.2     1  UNL1       -0.2716
     10 N          15.6432   39.7688    9.6086 N.ar    1  UNL1       -0.2750
     11 C          11.2616   40.8864    8.9593 C.2     1  UNL1        0.2266
     12 C           9.9262   41.0423    8.3270 C.3     1  UNL1        0.0949
     13 O          11.4335   41.2676   10.1470 O.2     1  UNL1       -0.2748
     14 N          12.3142   40.2478    8.2318 N.am    1  UNL1       -0.2832
     15 H          12.0670   39.7671    7.4089 H       1  UNL1        0.1549
     16 C          17.0644   41.6611    8.7231 C.2     1  UNL1        0.3574
     17 O          18.1161   41.0648    8.3645 O.2     1  UNL1       -0.2433
     18 O          17.0824   43.0411    8.9363 O.3     1  UNL1       -0.4444
     19 C          17.2253   44.1555    6.8191 C.3     1  UNL1        0.0513
     20 C          17.8894   43.9121    8.1582 C.3     1  UNL1        0.2089
@<TRIPOS>BOND
     1    19    20    1
     2    20    18    1
     3    16    18    1
     4    16     1    1
     5     2     4   ar
     6     3     2    1
     7     4    14    1
     8    12    11    1
     9     5    10   ar
    10     6     5    1
    11     8     7    1
    12    14    11   am
    13    10     7   am
    14    10     1   ar
    15    16    17    2
    16     1     2   ar
    17     4     5   ar
    18    11    13    2
    19     7     9    2
    20    14    15    1
@<TRIPOS>MOLECULE
MolPort-001-990-945 94430 CSSS00132532034 LN00558978 MCULE-4341930781 PubChem-707292 ZINC000000094430 ZINC00094430
 20 20 0 0 0
SMALL
GASTEIGER

@<TRIPOS>ATOM
      1 C          10.6785   41.9264    8.1886 C.ar    1  UNL1        0.1394
      2 C           9.7110   42.5549    8.9606 C.ar    1  UNL1        0.0153
      3 C           9.9213   43.3918   10.1774 C.3     1  UNL1        0.0341
      4 C           8.4976   42.2962    8.3635 C.ar    1  UNL1        0.0601
      5 C           8.7490   41.4871    7.2671 C.ar    1  UNL1        0.0576
      6 C           7.7115   40.7843    6.4526 C.3     1  UNL1        0.0518
      7 C          10.7132   40.3907    6.2067 C.2     1  UNL1        0.2417
      8 C          10.2764   40.3713    4.7819 C.3     1  UNL1        0.0983
      9 O          11.6351   39.6139    6.5711 O.2     1  UNL1       -0.2716
     10 N          10.0824   41.2671    7.1585 N.ar    1  UNL1       -0.2750
     11 C           6.2782   43.5340    8.2181 C.2     1  UNL1        0.2266
     12 C           4.8963   43.6466    8.7521 C.3     1  UNL1        0.0949
     13 O           6.6129   44.2177    7.2151 O.2     1  UNL1       -0.2748
     14 N           7.2258   42.6993    8.8892 N.am    1  UNL1       -0.2832
     15 H           6.9850   42.3745    9.7869 H       1  UNL1        0.1549
     16 C          12.1371   42.0170    8.4237 C.2     1  UNL1        0.3574
     17 O          12.6783   41.3312    9.3330 O.2     1  UNL1       -0.2433
     18 O          12.9193   42.8405    7.6110 O.3     1  UNL1       -0.4444
     19 C          15.2747   42.6881    7.1945 C.3     1  UNL1        0.0513
     20 C          13.8875   42.3138    6.7163 C.3     1  UNL1        0.2089
@<TRIPOS>BOND
     1    19    20    1
     2    20    18    1
     3    16    18    1
     4    16     1    1
     5     2     4   ar
     6     3     2    1
     7     4    14    1
     8    12    11    1
     9     5    10   ar
    10     6     5    1
    11     8     7    1
    12    14    11   am
    13    10     7   am
    14    10     1   ar
    15    16    17    2
    16     1     2   ar
    17     4     5   ar
    18    11    13    2
    19     7     9    2
    20    14    15    1
@<TRIPOS>MOLECULE
MolPort-001-990-945 94430 CSSS00132532034 LN00558978 MCULE-4341930781 PubChem-707292 ZINC000000094430 ZINC00094430
 20 20 0 0 0
SMALL
GASTEIGER

@<TRIPOS>ATOM
      1 C           9.0361   42.8562    8.7385 C.ar    1  UNL1        0.1394
      2 C           9.7468   41.9897    7.9193 C.ar    1  UNL1        0.0153
      3 C          11.0715   41.3608    8.1933 C.3     1  UNL1        0.0341
      4 C           8.9723   41.7765    6.8011 C.ar    1  UNL1        0.0601
      5 C           7.8288   42.5453    6.9467 C.ar    1  UNL1        0.0576
      6 C           6.8099   42.7935    5.8816 C.3     1  UNL1        0.0518
      7 C           6.9064   44.1711    8.5870 C.2     1  UNL1        0.2417
      8 C           5.4452   43.9420    8.4034 C.3     1  UNL1        0.0983
      9 O           7.2910   45.2392    9.1321 O.2     1  UNL1       -0.2716
     10 N           7.8668   43.1996    8.1335 N.ar    1  UNL1       -0.2750
     11 C           8.8960   39.6916    5.3427 C.2     1  UNL1        0.2266
     12 C           9.1810   39.1183    4.0021 C.3     1  UNL1        0.0949
     13 O           8.2858   38.9967    6.1973 O.2     1  UNL1       -0.2748
     14 N           9.3747   41.0002    5.6644 N.am    1  UNL1       -0.2832
     15 H          10.0354   41.4016    5.0548 H       1  UNL1        0.1549
     16 C           9.4656   43.2858   10.0883 C.2     1  UNL1        0.3574
     17 O          10.4094   44.1113   10.2224 O.2     1  UNL1       -0.2433
     18 O           8.7983   42.7992   11.2146 O.3     1  UNL1       -0.4444
     19 C          10.3740   41.1100   11.8536 C.3     1  UNL1        0.0513
     20 C           8.9144   41.4474   11.6322 C.3     1  UNL1        0.2089
@<TRIPOS>BOND
     1    19    20    1
     2    20    18    1
     3    16    18    1
     4    16     1    1
     5     2     4   ar
     6     3     2    1
     7     4    14    1
     8    12    11    1
     9     5    10   ar
    10     6     5    1
    11     8     7    1
    12    14    11   am
    13    10     7   am
    14    10     1   ar
    15    16    17    2
    16     1     2   ar
    17     4     5   ar
    18    11    13    2
    19     7     9    2
    20    14    15    1
