@<TRIPOS>MOLECULE
Molport-020-279-173 CHEMBL3449781 MCULE-9629700168 PubChem-110255927
 26 29 0 0 0
SMALL
GASTEIGER

@<TRIPOS>ATOM
      1 N          12.5241   40.5258    7.2478 N.ar    1  UNL1       -0.2316
      2 N           9.8169   40.6612    7.5727 N.ar    1  UNL1       -0.2382
      3 C          11.9091   39.6367    8.0719 C.ar    1  UNL1        0.0808
      4 C          11.8257   41.4824    6.5798 C.ar    1  UNL1        0.1533
      5 C          10.4368   41.5473    6.7502 C.ar    1  UNL1        0.1332
      6 C          10.5203   39.7081    8.2371 C.ar    1  UNL1        0.1137
      7 N          14.5302   38.2386   10.3967 N.pl3   1  UNL1       -0.2916
      8 C          13.8055   39.2621    9.6445 C.3     1  UNL1        0.0981
      9 C          12.7267   38.6058    8.7826 C.3     1  UNL1        0.0617
     10 C          11.8420   37.6907    9.6305 C.3     1  UNL1        0.0094
     11 C          12.6929   36.6279   10.3190 C.3     1  UNL1        0.0219
     12 C          13.7536   37.2904   11.1930 C.3     1  UNL1        0.0922
     13 N          16.6501   37.1354   10.8264 N.ar    1  UNL1       -0.2259
     14 N          18.0388   39.4342   10.3358 N.ar    1  UNL1       -0.2378
     15 C          15.9636   38.2646   10.4943 C.ar    1  UNL1        0.1511
     16 C          18.0059   37.1295   10.9201 C.ar    1  UNL1        0.1210
     17 C          18.7153   38.3043   10.6696 C.ar    1  UNL1        0.1196
     18 C          16.6831   39.4412   10.2417 C.ar    1  UNL1        0.1331
     19 N          12.5333   42.3914    5.7246 N.pl3   1  UNL1       -0.2667
     20 H          12.1552   42.5279    4.8259 H       1  UNL1        0.1565
     21 N          14.6863   42.5381    6.7946 N.ar    1  UNL1       -0.2120
     22 N          13.9190   44.3898    5.5654 N.ar    1  UNL1       -0.2120
     23 C          13.7282   43.1239    6.0285 C.ar    1  UNL1        0.2218
     24 C          15.8338   43.1953    7.1070 C.ar    1  UNL1        0.1034
     25 C          16.0435   44.4915    6.6404 C.ar    1  UNL1        0.0414
     26 C          15.0529   45.0793    5.8563 C.ar    1  UNL1        0.1034
@<TRIPOS>BOND
     1     7    15    1
     2    19    23    1
     3    16    13   ar
     4    17    14   ar
     5    18    15   ar
     6     8     7    1
     7     8     9    1
     8     9     3    1
     9     9    10    1
    10     4     1   ar
    11     4    19    1
    12    23    22   ar
    13    24    21   ar
    14    25    26   ar
    15     5     2   ar
    16     6     3   ar
    17    10    11    1
    18    11    12    1
    19    12     7    1
    20    15    13   ar
    21    16    17   ar
    22    18    14   ar
    23     3     1   ar
    24     4     5   ar
    25    23    21   ar
    26    24    25   ar
    27    26    22   ar
    28     6     2   ar
    29    19    20    1
@<TRIPOS>MOLECULE
Molport-020-279-173 CHEMBL3449781 MCULE-9629700168 PubChem-110255927
 26 29 0 0 0
SMALL
GASTEIGER

@<TRIPOS>ATOM
      1 N          12.5385   40.8648    7.7515 N.ar    1  UNL1       -0.2316
      2 N           9.8200   40.9264    7.9937 N.ar    1  UNL1       -0.2382
      3 C          11.9374   40.0815    8.6858 C.ar    1  UNL1        0.0808
      4 C          11.8207   41.6795    6.9328 C.ar    1  UNL1        0.1533
      5 C          10.4262   41.7072    7.0616 C.ar    1  UNL1        0.1332
      6 C          10.5427   40.1149    8.8084 C.ar    1  UNL1        0.1137
      7 N          14.8914   37.9862    9.7407 N.pl3   1  UNL1       -0.2916
      8 C          14.0483   38.7657    8.8351 C.3     1  UNL1        0.0981
      9 C          12.7761   39.2050    9.5602 C.3     1  UNL1        0.0617
     10 C          13.1200   39.9070   10.8748 C.3     1  UNL1        0.0094
     11 C          13.9470   38.9828   11.7633 C.3     1  UNL1        0.0219
     12 C          15.2243   38.5652   11.0408 C.3     1  UNL1        0.0922
     13 N          16.8354   36.7608    8.9565 N.ar    1  UNL1       -0.2259
     14 N          15.4194   34.4296    8.8378 N.ar    1  UNL1       -0.2378
     15 C          15.5187   36.7682    9.3072 C.ar    1  UNL1        0.1511
     16 C          17.4559   35.6225    8.5487 C.ar    1  UNL1        0.1210
     17 C          16.7321   34.4314    8.4879 C.ar    1  UNL1        0.1196
     18 C          14.7979   35.5673    9.2458 C.ar    1  UNL1        0.1331
     19 N          12.5145   42.4819    5.9668 N.pl3   1  UNL1       -0.2667
     20 H          12.0976   42.5508    5.0776 H       1  UNL1        0.1565
     21 N          14.7397   42.6239    6.8777 N.ar    1  UNL1       -0.2120
     22 N          13.9348   44.4287    5.6036 N.ar    1  UNL1       -0.2120
     23 C          13.7454   43.1952    6.1477 C.ar    1  UNL1        0.2218
     24 C          15.9221   43.2638    7.0745 C.ar    1  UNL1        0.1034
     25 C          16.1308   44.5268    6.5240 C.ar    1  UNL1        0.0414
     26 C          15.1029   45.1000    5.7780 C.ar    1  UNL1        0.1034
@<TRIPOS>BOND
     1     7    15    1
     2    19    23    1
     3    16    13   ar
     4    17    14   ar
     5    18    15   ar
     6     8     7    1
     7     8     9    1
     8     9     3    1
     9     9    10    1
    10     4     1   ar
    11     4    19    1
    12    23    22   ar
    13    24    21   ar
    14    25    26   ar
    15     5     2   ar
    16     6     3   ar
    17    10    11    1
    18    11    12    1
    19    12     7    1
    20    15    13   ar
    21    16    17   ar
    22    18    14   ar
    23     3     1   ar
    24     4     5   ar
    25    23    21   ar
    26    24    25   ar
    27    26    22   ar
    28     6     2   ar
    29    19    20    1
@<TRIPOS>MOLECULE
Molport-020-279-173 CHEMBL3449781 MCULE-9629700168 PubChem-110255927
 26 29 0 0 0
SMALL
GASTEIGER

@<TRIPOS>ATOM
      1 N          10.8742   41.1754    6.9248 N.ar    1  UNL1       -0.2316
      2 N          12.4892   39.8296    8.6664 N.ar    1  UNL1       -0.2382
      3 C          10.3212   40.2835    7.7888 C.ar    1  UNL1        0.0808
      4 C          12.2125   41.4156    6.9047 C.ar    1  UNL1        0.1533
      5 C          13.0364   40.7221    7.8005 C.ar    1  UNL1        0.1332
      6 C          11.1517   39.5942    8.6813 C.ar    1  UNL1        0.1137
      7 N           6.6527   41.0710    8.1774 N.pl3   1  UNL1       -0.2916
      8 C           8.0950   41.2826    8.2940 C.3     1  UNL1        0.0981
      9 C           8.8431   40.0580    7.7668 C.3     1  UNL1        0.0617
     10 C           8.3627   39.6969    6.3604 C.3     1  UNL1        0.0094
     11 C           6.8589   39.4393    6.3688 C.3     1  UNL1        0.0219
     12 C           6.1183   40.6728    6.8766 C.3     1  UNL1        0.0922
     13 N           4.4845   41.8000    8.9918 N.ar    1  UNL1       -0.2259
     14 N           5.3200   41.6564   11.5870 N.ar    1  UNL1       -0.2378
     15 C           5.7633   41.4095    9.2541 C.ar    1  UNL1        0.1511
     16 C           3.6200   42.1201    9.9903 C.ar    1  UNL1        0.1210
     17 C           4.0472   42.0469   11.3164 C.ar    1  UNL1        0.1196
     18 C           6.1853   41.3361   10.5891 C.ar    1  UNL1        0.1331
     19 N          12.7346   42.3691    5.9685 N.pl3   1  UNL1       -0.2667
     20 H          12.2290   42.4792    5.1310 H       1  UNL1        0.1565
     21 N          14.9765   42.6835    6.7914 N.ar    1  UNL1       -0.2120
     22 N          13.9720   44.4331    5.5837 N.ar    1  UNL1       -0.2120
     23 C          13.9085   43.1802    6.1125 C.ar    1  UNL1        0.2218
     24 C          16.1088   43.4172    6.9518 C.ar    1  UNL1        0.1034
     25 C          16.1888   44.7012    6.4164 C.ar    1  UNL1        0.0414
     26 C          15.0866   45.1973    5.7230 C.ar    1  UNL1        0.1034
@<TRIPOS>BOND
     1     7    15    1
     2    19    23    1
     3    16    13   ar
     4    17    14   ar
     5    18    15   ar
     6     8     7    1
     7     8     9    1
     8     9     3    1
     9     9    10    1
    10     4     1   ar
    11     4    19    1
    12    23    22   ar
    13    24    21   ar
    14    25    26   ar
    15     5     2   ar
    16     6     3   ar
    17    10    11    1
    18    11    12    1
    19    12     7    1
    20    15    13   ar
    21    16    17   ar
    22    18    14   ar
    23     3     1   ar
    24     4     5   ar
    25    23    21   ar
    26    24    25   ar
    27    26    22   ar
    28     6     2   ar
    29    19    20    1
@<TRIPOS>MOLECULE
Molport-020-279-173 CHEMBL3449781 MCULE-9629700168 PubChem-110255927
 26 29 0 0 0
SMALL
GASTEIGER

@<TRIPOS>ATOM
      1 N           9.0603   41.8261    9.6106 N.ar    1  UNL1       -0.2316
      2 N           9.2766   41.2416   12.2685 N.ar    1  UNL1       -0.2382
      3 C          10.1702   41.1833   10.0608 C.ar    1  UNL1        0.0808
      4 C           8.0531   42.1864   10.4502 C.ar    1  UNL1        0.1533
      5 C           8.1694   41.8841   11.8130 C.ar    1  UNL1        0.1332
      6 C          10.2790   40.8845   11.4247 C.ar    1  UNL1        0.1137
      7 N          13.4459   41.4223    8.2056 N.pl3   1  UNL1       -0.2916
      8 C          12.3654   41.8544    9.0911 C.3     1  UNL1        0.0981
      9 C          11.2478   40.8113    9.0929 C.3     1  UNL1        0.0617
     10 C          11.8077   39.4217    9.4005 C.3     1  UNL1        0.0094
     11 C          12.8810   39.0504    8.3816 C.3     1  UNL1        0.0219
     12 C          14.0023   40.0848    8.4004 C.3     1  UNL1        0.0922
     13 N          15.3908   42.6286    7.3943 N.ar    1  UNL1       -0.2259
     14 N          13.9357   43.7980    5.4021 N.ar    1  UNL1       -0.2378
     15 C          14.0639   42.3381    7.2867 C.ar    1  UNL1        0.1511
     16 C          16.0026   43.4861    6.5357 C.ar    1  UNL1        0.1210
     17 C          15.2588   44.0838    5.5179 C.ar    1  UNL1        0.1196
     18 C          13.3230   42.9406    6.2602 C.ar    1  UNL1        0.1331
     19 N           6.9076   42.8629    9.9132 N.pl3   1  UNL1       -0.2667
     20 H           7.0630   43.7677    9.5576 H       1  UNL1        0.1565
     21 N           5.2954   41.1045   10.2458 N.ar    1  UNL1       -0.2120
     22 N           4.5521   43.1511    9.3584 N.ar    1  UNL1       -0.2120
     23 C           5.5622   42.3726    9.8348 C.ar    1  UNL1        0.2218
     24 C           4.0354   40.5991   10.1892 C.ar    1  UNL1        0.1034
     25 C           2.9911   41.3838    9.7040 C.ar    1  UNL1        0.0414
     26 C           3.2793   42.6815    9.2864 C.ar    1  UNL1        0.1034
@<TRIPOS>BOND
     1     7    15    1
     2    19    23    1
     3    16    13   ar
     4    17    14   ar
     5    18    15   ar
     6     8     7    1
     7     8     9    1
     8     9     3    1
     9     9    10    1
    10     4     1   ar
    11     4    19    1
    12    23    22   ar
    13    24    21   ar
    14    25    26   ar
    15     5     2   ar
    16     6     3   ar
    17    10    11    1
    18    11    12    1
    19    12     7    1
    20    15    13   ar
    21    16    17   ar
    22    18    14   ar
    23     3     1   ar
    24     4     5   ar
    25    23    21   ar
    26    24    25   ar
    27    26    22   ar
    28     6     2   ar
    29    19    20    1
@<TRIPOS>MOLECULE
Molport-020-279-173 CHEMBL3449781 MCULE-9629700168 PubChem-110255927
 26 29 0 0 0
SMALL
GASTEIGER

@<TRIPOS>ATOM
      1 N          10.9171   41.9576    7.8294 N.ar    1  UNL1       -0.2316
      2 N          11.7383   39.3840    8.2228 N.ar    1  UNL1       -0.2382
      3 C          10.3070   41.2045    8.7826 C.ar    1  UNL1        0.0808
      4 C          11.9272   41.4625    7.0654 C.ar    1  UNL1        0.1533
      5 C          12.3445   40.1413    7.2714 C.ar    1  UNL1        0.1332
      6 C          10.7299   39.8844    8.9825 C.ar    1  UNL1        0.1137
      7 N           6.7801   42.1332    9.7457 N.pl3   1  UNL1       -0.2916
      8 C           7.8532   41.6244    8.8924 C.3     1  UNL1        0.0981
      9 C           9.2005   41.7998    9.5934 C.3     1  UNL1        0.0617
     10 C           9.1605   41.1949   10.9975 C.3     1  UNL1        0.0094
     11 C           8.0465   41.8403   11.8161 C.3     1  UNL1        0.0219
     12 C           6.7029   41.6432   11.1205 C.3     1  UNL1        0.0922
     13 N           6.0191   43.9415    8.3152 N.ar    1  UNL1       -0.2259
     14 N           3.4208   43.5386    9.0502 N.ar    1  UNL1       -0.2378
     15 C           5.7301   42.9538    9.2081 C.ar    1  UNL1        0.1511
     16 C           5.0457   44.7286    7.7861 C.ar    1  UNL1        0.1210
     17 C           3.7180   44.5227    8.1620 C.ar    1  UNL1        0.1196
     18 C           4.3935   42.7509    9.5798 C.ar    1  UNL1        0.1331
     19 N          12.5303   42.3083    6.0758 N.pl3   1  UNL1       -0.2667
     20 H          12.0683   42.3614    5.2081 H       1  UNL1        0.1565
     21 N          14.7640   42.5877    6.9326 N.ar    1  UNL1       -0.2120
     22 N          13.8474   44.3064    5.6156 N.ar    1  UNL1       -0.2120
     23 C          13.7287   43.0852    6.2054 C.ar    1  UNL1        0.2218
     24 C          15.9179   43.2896    7.0816 C.ar    1  UNL1        0.1034
     25 C          16.0542   44.5410    6.4840 C.ar    1  UNL1        0.0414
     26 C          14.9851   45.0382    5.7416 C.ar    1  UNL1        0.1034
@<TRIPOS>BOND
     1     7    15    1
     2    19    23    1
     3    16    13   ar
     4    17    14   ar
     5    18    15   ar
     6     8     7    1
     7     8     9    1
     8     9     3    1
     9     9    10    1
    10     4     1   ar
    11     4    19    1
    12    23    22   ar
    13    24    21   ar
    14    25    26   ar
    15     5     2   ar
    16     6     3   ar
    17    10    11    1
    18    11    12    1
    19    12     7    1
    20    15    13   ar
    21    16    17   ar
    22    18    14   ar
    23     3     1   ar
    24     4     5   ar
    25    23    21   ar
    26    24    25   ar
    27    26    22   ar
    28     6     2   ar
    29    19    20    1
@<TRIPOS>MOLECULE
Molport-020-279-173 CHEMBL3449781 MCULE-9629700168 PubChem-110255927
 26 29 0 0 0
SMALL
GASTEIGER

@<TRIPOS>ATOM
      1 N          12.3329   41.5412    9.0592 N.ar    1  UNL1       -0.2316
      2 N          13.3979   39.5412   10.5818 N.ar    1  UNL1       -0.2382
      3 C          11.6439   41.0922   10.1415 C.ar    1  UNL1        0.0808
      4 C          13.5405   41.0200    8.7141 C.ar    1  UNL1        0.1533
      5 C          14.0822   39.9939    9.4989 C.ar    1  UNL1        0.1332
      6 C          12.1921   40.0660   10.9211 C.ar    1  UNL1        0.1137
      7 N           8.0058   42.0011    9.7323 N.pl3   1  UNL1       -0.2916
      8 C           9.3144   41.4763    9.3442 C.3     1  UNL1        0.0981
      9 C          10.3192   41.7012   10.4743 C.3     1  UNL1        0.0617
     10 C           9.7774   41.1518   11.7947 C.3     1  UNL1        0.0094
     11 C           8.4428   41.8110   12.1299 C.3     1  UNL1        0.0219
     12 C           7.4396   41.5647   11.0071 C.3     1  UNL1        0.0922
     13 N           7.4677   42.7315    7.4800 N.ar    1  UNL1       -0.2259
     14 N           5.4461   44.3239    8.3919 N.ar    1  UNL1       -0.2378
     15 C           7.2186   42.7825    8.8187 C.ar    1  UNL1        0.1511
     16 C           6.7355   43.4550    6.5927 C.ar    1  UNL1        0.1210
     17 C           5.7027   44.2688    7.0589 C.ar    1  UNL1        0.1196
     18 C           6.1778   43.6008    9.2800 C.ar    1  UNL1        0.1331
     19 N          14.2179   41.5374    7.5601 N.pl3   1  UNL1       -0.2667
     20 H          13.8390   41.2907    6.6855 H       1  UNL1        0.1565
     21 N          15.3718   43.5008    6.7759 N.ar    1  UNL1       -0.2120
     22 N          16.4963   42.0566    8.2519 N.ar    1  UNL1       -0.2120
     23 C          15.3835   42.3725    7.5340 C.ar    1  UNL1        0.2218
     24 C          16.4539   44.3209    6.7218 C.ar    1  UNL1        0.1034
     25 C          17.6002   44.0109    7.4510 C.ar    1  UNL1        0.0414
     26 C          17.5978   42.8513    8.2236 C.ar    1  UNL1        0.1034
@<TRIPOS>BOND
     1     7    15    1
     2    19    23    1
     3    16    13   ar
     4    17    14   ar
     5    18    15   ar
     6     8     7    1
     7     8     9    1
     8     9     3    1
     9     9    10    1
    10     4     1   ar
    11     4    19    1
    12    23    22   ar
    13    24    21   ar
    14    25    26   ar
    15     5     2   ar
    16     6     3   ar
    17    10    11    1
    18    11    12    1
    19    12     7    1
    20    15    13   ar
    21    16    17   ar
    22    18    14   ar
    23     3     1   ar
    24     4     5   ar
    25    23    21   ar
    26    24    25   ar
    27    26    22   ar
    28     6     2   ar
    29    19    20    1
@<TRIPOS>MOLECULE
Molport-020-279-173 CHEMBL3449781 MCULE-9629700168 PubChem-110255927
 26 29 0 0 0
SMALL
GASTEIGER

@<TRIPOS>ATOM
      1 N          14.8756   41.6045    8.1682 N.ar    1  UNL1       -0.2316
      2 N          16.0675   43.7454    6.9646 N.ar    1  UNL1       -0.2382
      3 C          14.1256   42.4340    7.3954 C.ar    1  UNL1        0.0808
      4 C          16.2059   41.8129    8.3580 C.ar    1  UNL1        0.1533
      5 C          16.8122   42.9130    7.7381 C.ar    1  UNL1        0.1332
      6 C          14.7392   43.5317    6.7790 C.ar    1  UNL1        0.1137
      7 N          11.0026   40.4673    6.6155 N.pl3   1  UNL1       -0.2916
      8 C          12.4369   40.7427    6.6902 C.3     1  UNL1        0.0981
      9 C          12.6662   42.1577    7.2218 C.3     1  UNL1        0.0617
     10 C          11.9063   42.3712    8.5317 C.3     1  UNL1        0.0094
     11 C          10.4167   42.1160    8.3227 C.3     1  UNL1        0.0219
     12 C          10.1946   40.6956    7.8118 C.3     1  UNL1        0.0922
     13 N          11.2314   39.2491    4.5276 N.ar    1  UNL1       -0.2259
     14 N           8.5240   39.1633    4.1865 N.ar    1  UNL1       -0.2378
     15 C          10.4283   39.8288    5.4633 C.ar    1  UNL1        0.1511
     16 C          10.7156   38.6332    3.4314 C.ar    1  UNL1        0.1210
     17 C           9.3321   38.5897    3.2572 C.ar    1  UNL1        0.1196
     18 C           9.0388   39.7795    5.2831 C.ar    1  UNL1        0.1331
     19 N          16.9422   40.9009    9.1854 N.pl3   1  UNL1       -0.2667
     20 H          17.9213   41.0034    9.1824 H       1  UNL1        0.1565
     21 N          15.0976   39.8774   10.3480 N.ar    1  UNL1       -0.2120
     22 N          17.2092   38.8512   10.4763 N.ar    1  UNL1       -0.2120
     23 C          16.4158   39.8572   10.0162 C.ar    1  UNL1        0.2218
     24 C          14.5568   38.9089   11.1327 C.ar    1  UNL1        0.1034
     25 C          15.3562   37.8728   11.6113 C.ar    1  UNL1        0.0414
     26 C          16.7054   37.8649   11.2632 C.ar    1  UNL1        0.1034
@<TRIPOS>BOND
     1     7    15    1
     2    19    23    1
     3    16    13   ar
     4    17    14   ar
     5    18    15   ar
     6     8     7    1
     7     8     9    1
     8     9     3    1
     9     9    10    1
    10     4     1   ar
    11     4    19    1
    12    23    22   ar
    13    24    21   ar
    14    25    26   ar
    15     5     2   ar
    16     6     3   ar
    17    10    11    1
    18    11    12    1
    19    12     7    1
    20    15    13   ar
    21    16    17   ar
    22    18    14   ar
    23     3     1   ar
    24     4     5   ar
    25    23    21   ar
    26    24    25   ar
    27    26    22   ar
    28     6     2   ar
    29    19    20    1
@<TRIPOS>MOLECULE
Molport-020-279-173 CHEMBL3449781 MCULE-9629700168 PubChem-110255927
 26 29 0 0 0
SMALL
GASTEIGER

@<TRIPOS>ATOM
      1 N          11.1927   40.3555    8.3555 N.ar    1  UNL1       -0.2316
      2 N          12.1069   41.7596    6.2002 N.ar    1  UNL1       -0.2382
      3 C          10.3279   40.6768    7.3572 C.ar    1  UNL1        0.0808
      4 C          12.5032   40.7154    8.3092 C.ar    1  UNL1        0.1533
      5 C          12.9669   41.4358    7.2010 C.ar    1  UNL1        0.1332
      6 C          10.7990   41.3972    6.2525 C.ar    1  UNL1        0.1137
      7 N           6.6344   40.9697    8.0658 N.pl3   1  UNL1       -0.2916
      8 C           8.0403   41.3722    8.0595 C.3     1  UNL1        0.0981
      9 C           8.8966   40.2561    7.4606 C.3     1  UNL1        0.0617
     10 C           8.3490   39.8287    6.0981 C.3     1  UNL1        0.0094
     11 C           6.8993   39.3729    6.2338 C.3     1  UNL1        0.0219
     12 C           6.0476   40.4987    6.8128 C.3     1  UNL1        0.0922
     13 N           4.4485   41.0997    9.1148 N.ar    1  UNL1       -0.2259
     14 N           5.5566   41.6911   11.5388 N.ar    1  UNL1       -0.2378
     15 C           5.8041   41.1909    9.2176 C.ar    1  UNL1        0.1511
     16 C           3.6393   41.2979   10.1885 C.ar    1  UNL1        0.1210
     17 C           4.2057   41.6003   11.4270 C.ar    1  UNL1        0.1196
     18 C           6.3667   41.4930   10.4657 C.ar    1  UNL1        0.1331
     19 N          13.3653   40.3460    9.3949 N.pl3   1  UNL1       -0.2667
     20 H          12.9236   39.9979   10.2029 H       1  UNL1        0.1565
     21 N          15.4243   41.4232    8.7609 N.ar    1  UNL1       -0.2120
     22 N          15.5342   39.5240   10.1428 N.ar    1  UNL1       -0.2120
     23 C          14.7965   40.4256    9.4383 C.ar    1  UNL1        0.2218
     24 C          16.7783   41.5365    8.7746 C.ar    1  UNL1        0.1034
     25 C          17.5468   40.6213    9.4910 C.ar    1  UNL1        0.0414
     26 C          16.8899   39.6041   10.1806 C.ar    1  UNL1        0.1034
@<TRIPOS>BOND
     1     7    15    1
     2    19    23    1
     3    16    13   ar
     4    17    14   ar
     5    18    15   ar
     6     8     7    1
     7     8     9    1
     8     9     3    1
     9     9    10    1
    10     4     1   ar
    11     4    19    1
    12    23    22   ar
    13    24    21   ar
    14    25    26   ar
    15     5     2   ar
    16     6     3   ar
    17    10    11    1
    18    11    12    1
    19    12     7    1
    20    15    13   ar
    21    16    17   ar
    22    18    14   ar
    23     3     1   ar
    24     4     5   ar
    25    23    21   ar
    26    24    25   ar
    27    26    22   ar
    28     6     2   ar
    29    19    20    1
@<TRIPOS>MOLECULE
Molport-020-279-173 CHEMBL3449781 MCULE-9629700168 PubChem-110255927
 26 29 0 0 0
SMALL
GASTEIGER

@<TRIPOS>ATOM
      1 N          15.4016   39.8609   10.0969 N.ar    1  UNL1       -0.2316
      2 N          16.5253   38.0052   11.7541 N.ar    1  UNL1       -0.2382
      3 C          14.5953   39.0035   10.7771 C.ar    1  UNL1        0.0808
      4 C          16.7552   39.8190   10.2202 C.ar    1  UNL1        0.1533
      5 C          17.3264   38.8647   11.0718 C.ar    1  UNL1        0.1332
      6 C          15.1740   38.0523   11.6265 C.ar    1  UNL1        0.1137
      7 N          11.2790   40.4246    9.6761 N.pl3   1  UNL1       -0.2916
      8 C          12.7216   40.4020    9.9152 C.3     1  UNL1        0.0981
      9 C          13.1128   39.0938   10.6030 C.3     1  UNL1        0.0617
     10 C          12.5764   37.8930    9.8225 C.3     1  UNL1        0.0094
     11 C          11.0599   37.9898    9.6861 C.3     1  UNL1        0.0219
     12 C          10.6786   39.2878    8.9807 C.3     1  UNL1        0.0922
     13 N           9.2121   41.4798   10.3901 N.ar    1  UNL1       -0.2259
     14 N          10.2820   43.9723   10.0799 N.ar    1  UNL1       -0.2378
     15 C          10.4984   41.5980    9.9565 C.ar    1  UNL1        0.1511
     16 C           8.4526   42.5719   10.6685 C.ar    1  UNL1        0.1210
     17 C           8.9995   43.8455   10.5097 C.ar    1  UNL1        0.1196
     18 C          11.0423   42.8808    9.8012 C.ar    1  UNL1        0.1331
     19 N          17.5512   40.7515    9.4752 N.pl3   1  UNL1       -0.2667
     20 H          18.5260   40.6182    9.5110 H       1  UNL1        0.1565
     21 N          17.8336   42.9928    8.6395 N.ar    1  UNL1       -0.2120
     22 N          15.9266   41.7850    7.9812 N.ar    1  UNL1       -0.2120
     23 C          17.0902   41.8555    8.6845 C.ar    1  UNL1        0.2218
     24 C          17.4347   44.0630    7.9033 C.ar    1  UNL1        0.1034
     25 C          16.2461   44.0059    7.1783 C.ar    1  UNL1        0.0414
     26 C          15.4945   42.8339    7.2337 C.ar    1  UNL1        0.1034
@<TRIPOS>BOND
     1     7    15    1
     2    19    23    1
     3    16    13   ar
     4    17    14   ar
     5    18    15   ar
     6     8     7    1
     7     8     9    1
     8     9     3    1
     9     9    10    1
    10     4     1   ar
    11     4    19    1
    12    23    22   ar
    13    24    21   ar
    14    25    26   ar
    15     5     2   ar
    16     6     3   ar
    17    10    11    1
    18    11    12    1
    19    12     7    1
    20    15    13   ar
    21    16    17   ar
    22    18    14   ar
    23     3     1   ar
    24     4     5   ar
    25    23    21   ar
    26    24    25   ar
    27    26    22   ar
    28     6     2   ar
    29    19    20    1
@<TRIPOS>MOLECULE
Molport-020-279-173 CHEMBL3449781 MCULE-9629700168 PubChem-110255927
 26 29 0 0 0
SMALL
GASTEIGER

@<TRIPOS>ATOM
      1 N          12.7111   41.2790    9.1013 N.ar    1  UNL1       -0.2316
      2 N          13.0093   39.6069   11.2385 N.ar    1  UNL1       -0.2382
      3 C          11.7063   41.1792   10.0112 C.ar    1  UNL1        0.0808
      4 C          13.8629   40.5672    9.2273 C.ar    1  UNL1        0.1533
      5 C          14.0104   39.7106   10.3258 C.ar    1  UNL1        0.1332
      6 C          11.8613   40.3207   11.1068 C.ar    1  UNL1        0.1137
      7 N           8.1559   42.3219   10.5754 N.pl3   1  UNL1       -0.2916
      8 C           9.3318   41.4632   10.7117 C.3     1  UNL1        0.0981
      9 C          10.4607   41.9849    9.8225 C.3     1  UNL1        0.0617
     10 C          10.7186   43.4679   10.0931 C.3     1  UNL1        0.0094
     11 C           9.4437   44.2736    9.8625 C.3     1  UNL1        0.0219
     12 C           8.3280   43.7605   10.7679 C.3     1  UNL1        0.0922
     13 N           6.1380   41.3641   11.5274 N.ar    1  UNL1       -0.2259
     14 N           5.0031   41.0955    9.0589 N.ar    1  UNL1       -0.2378
     15 C           6.8405   41.7619   10.4298 C.ar    1  UNL1        0.1511
     16 C           4.8900   40.8369   11.4199 C.ar    1  UNL1        0.1210
     17 C           4.3104   40.6995   10.1584 C.ar    1  UNL1        0.1196
     18 C           6.2511   41.6230    9.1653 C.ar    1  UNL1        0.1331
     19 N          14.8861   40.7168    8.2329 N.pl3   1  UNL1       -0.2667
     20 H          15.0153   39.9550    7.6228 H       1  UNL1        0.1565
     21 N          15.2917   42.8901    7.2770 N.ar    1  UNL1       -0.2120
     22 N          16.9922   41.8978    8.5624 N.ar    1  UNL1       -0.2120
     23 C          15.7422   41.8485    8.0254 C.ar    1  UNL1        0.2218
     24 C          16.0690   43.9823    7.0548 C.ar    1  UNL1        0.1034
     25 C          17.3507   44.0473    7.5977 C.ar    1  UNL1        0.0414
     26 C          17.7991   42.9724    8.3627 C.ar    1  UNL1        0.1034
@<TRIPOS>BOND
     1     7    15    1
     2    19    23    1
     3    16    13   ar
     4    17    14   ar
     5    18    15   ar
     6     8     7    1
     7     8     9    1
     8     9     3    1
     9     9    10    1
    10     4     1   ar
    11     4    19    1
    12    23    22   ar
    13    24    21   ar
    14    25    26   ar
    15     5     2   ar
    16     6     3   ar
    17    10    11    1
    18    11    12    1
    19    12     7    1
    20    15    13   ar
    21    16    17   ar
    22    18    14   ar
    23     3     1   ar
    24     4     5   ar
    25    23    21   ar
    26    24    25   ar
    27    26    22   ar
    28     6     2   ar
    29    19    20    1
