@<TRIPOS>MOLECULE
MolPort-006-735-194 ChemDiv-D411-0149 MCULE-2748102922 PubChem-46740137
 32 35 0 0 0
SMALL
GASTEIGER

@<TRIPOS>ATOM
      1 C          11.2459   40.0756    9.1981 C.3     1  UNL1        0.1078
      2 C          13.6363   37.4724   10.7309 C.ar    1  UNL1        0.1721
      3 C          12.7903   36.3517   10.7086 C.ar    1  UNL1        0.0400
      4 C          11.4946   36.4441   10.2080 C.ar    1  UNL1        0.0030
      5 C          11.0248   37.6597    9.7205 C.ar    1  UNL1        0.0006
      6 C          11.8434   38.7919    9.7241 C.ar    1  UNL1        0.0335
      7 C          13.1609   38.7148   10.2348 C.ar    1  UNL1        0.1699
      8 C          15.5046   38.2984   12.1381 C.3     1  UNL1        0.2526
      9 O          14.9355   37.3559   11.2387 O.3     1  UNL1       -0.4684
     10 C          15.0287   40.1325    9.3393 C.3     1  UNL1        0.2526
     11 O          13.9444   39.8822   10.2216 O.3     1  UNL1       -0.4686
     12 C          10.5397   41.3237   11.1530 C.3     1  UNL1        0.1051
     13 C          10.8845   42.7841   10.8115 C.3     1  UNL1        0.1595
     14 C           9.6558   42.7984    8.9413 C.3     1  UNL1        0.1595
     15 C           9.1757   41.3489    9.1387 C.3     1  UNL1        0.1051
     16 O          10.9627   42.9699    9.4231 O.3     1  UNL1       -0.3508
     17 N          10.0848   40.5468    9.9824 N.3     1  UNL1       -0.2624
     18 C          10.9567   39.9655    7.7232 C.ar    1  UNL1        0.0164
     19 C          11.8147   40.4696    6.7542 C.ar    1  UNL1        0.0782
     20 C           9.7889   39.3951    5.8042 C.ar    1  UNL1        0.0086
     21 C           8.7088   38.8354    4.9514 C.3     1  UNL1        0.0382
     22 C           9.8085   39.3573    7.1918 C.ar    1  UNL1        0.0013
     23 S          11.1656   40.1704    5.2292 S.2     1  UNL1       -0.0768
     24 C          13.4836   42.3896    6.4802 C.2     1  UNL1        0.2846
     25 O          12.7859   42.9966    5.6249 O.2     1  UNL1       -0.2664
     26 N          13.0434   41.1485    7.0442 N.am    1  UNL1       -0.2731
     27 H          13.6442   40.7193    7.6954 H       1  UNL1        0.1557
     28 C          14.7649   42.9632    6.9030 C.ar    1  UNL1        0.1988
     29 C          15.7305   42.3090    7.6388 C.ar    1  UNL1        0.0455
     30 C          16.7457   43.2368    7.7929 C.ar    1  UNL1        0.0440
     31 C          16.3323   44.3877    7.1438 C.ar    1  UNL1        0.1798
     32 O          15.1452   44.1842    6.6257 O.2     1  UNL1       -0.4458
@<TRIPOS>BOND
     1     8     9    1
     2     2     9    1
     3     3     4   ar
     4     5     6   ar
     5     1     6    1
     6     1    17    1
     7     1    18    1
     8    12    17    1
     9    12    13    1
    10    13    16    1
    11    14    16    1
    12    14    15    1
    13    15    17    1
    14    19    26    1
    15    19    23   ar
    16    24    28    1
    17    28    32   ar
    18    29    30   ar
    19    31    32   ar
    20    20    23   ar
    21    21    20    1
    22    22    18   ar
    23     7    11    1
    24     7     2   ar
    25    10    11    1
    26    26    24   am
    27     2     3   ar
    28     4     5   ar
    29     6     7   ar
    30    18    19   ar
    31    24    25    2
    32    28    29   ar
    33    30    31   ar
    34    20    22   ar
    35    26    27    1
@<TRIPOS>MOLECULE
MolPort-006-735-194 ChemDiv-D411-0149 MCULE-2748102922 PubChem-46740137
 32 35 0 0 0
SMALL
GASTEIGER

@<TRIPOS>ATOM
      1 C          11.2723   40.9910    9.1141 C.3     1  UNL1        0.1078
      2 C          13.2092   38.0153   10.6088 C.ar    1  UNL1        0.1721
      3 C          14.4904   38.5876   10.6637 C.ar    1  UNL1        0.0400
      4 C          14.7089   39.8937   10.2345 C.ar    1  UNL1        0.0030
      5 C          13.6480   40.6489    9.7442 C.ar    1  UNL1        0.0006
      6 C          12.3605   40.1103    9.6813 C.ar    1  UNL1        0.0335
      7 C          12.1239   38.7822   10.1088 C.ar    1  UNL1        0.1699
      8 C          13.1498   35.5704   10.1940 C.3     1  UNL1        0.2526
      9 O          13.0130   36.7002   11.0461 O.3     1  UNL1       -0.4684
     10 C          10.3247   37.4331    8.9937 C.3     1  UNL1        0.2526
     11 O          10.8123   38.2833   10.0215 O.3     1  UNL1       -0.4686
     12 C          10.2949   41.6706   11.2261 C.3     1  UNL1        0.1051
     13 C          10.2349   43.2057   11.1360 C.3     1  UNL1        0.1595
     14 C           9.0140   43.2016    9.2606 C.3     1  UNL1        0.1595
     15 C           8.9382   41.6647    9.2068 C.3     1  UNL1        0.1051
     16 O          10.2370   43.6305    9.7989 O.3     1  UNL1       -0.3508
     17 N          10.0417   41.0039    9.9330 N.3     1  UNL1       -0.2624
     18 C          11.0151   40.6579    7.6670 C.ar    1  UNL1        0.0164
     19 C          11.9699   40.8462    6.6761 C.ar    1  UNL1        0.0782
     20 C           9.8327   39.9248    5.8133 C.ar    1  UNL1        0.0086
     21 C           8.7059   39.3833    5.0106 C.3     1  UNL1        0.0382
     22 C           9.8036   40.1377    7.1848 C.ar    1  UNL1        0.0013
     23 S          11.3295   40.3727    5.1920 S.2     1  UNL1       -0.0768
     24 C          13.7326   42.6987    6.5878 C.2     1  UNL1        0.2846
     25 O          12.9698   43.5245    6.0193 O.2     1  UNL1       -0.2664
     26 N          13.2791   41.3793    6.9133 N.am    1  UNL1       -0.2731
     27 H          13.9312   40.7795    7.3425 H       1  UNL1        0.1557
     28 C          15.1044   43.0954    6.9197 C.ar    1  UNL1        0.1988
     29 C          15.7340   44.2415    6.4820 C.ar    1  UNL1        0.0455
     30 C          16.9975   44.1868    7.0440 C.ar    1  UNL1        0.0440
     31 C          17.0521   43.0170    7.7825 C.ar    1  UNL1        0.1798
     32 O          15.9029   42.3937    7.6830 O.2     1  UNL1       -0.4458
@<TRIPOS>BOND
     1     8     9    1
     2     2     9    1
     3     3     4   ar
     4     5     6   ar
     5     1     6    1
     6     1    17    1
     7     1    18    1
     8    12    17    1
     9    12    13    1
    10    13    16    1
    11    14    16    1
    12    14    15    1
    13    15    17    1
    14    19    26    1
    15    19    23   ar
    16    24    28    1
    17    28    32   ar
    18    29    30   ar
    19    31    32   ar
    20    20    23   ar
    21    21    20    1
    22    22    18   ar
    23     7    11    1
    24     7     2   ar
    25    10    11    1
    26    26    24   am
    27     2     3   ar
    28     4     5   ar
    29     6     7   ar
    30    18    19   ar
    31    24    25    2
    32    28    29   ar
    33    30    31   ar
    34    20    22   ar
    35    26    27    1
@<TRIPOS>MOLECULE
MolPort-006-735-194 ChemDiv-D411-0149 MCULE-2748102922 PubChem-46740137
 32 35 0 0 0
SMALL
GASTEIGER

@<TRIPOS>ATOM
      1 C          14.2937   39.4899    9.2933 C.3     1  UNL1        0.1078
      2 C          13.8636   42.4174    6.8266 C.ar    1  UNL1        0.1721
      3 C          12.7468   41.9486    6.1160 C.ar    1  UNL1        0.0400
      4 C          12.1571   40.7285    6.4349 C.ar    1  UNL1        0.0030
      5 C          12.6752   39.9582    7.4714 C.ar    1  UNL1        0.0006
      6 C          13.7822   40.3989    8.2008 C.ar    1  UNL1        0.0335
      7 C          14.3957   41.6343    7.8847 C.ar    1  UNL1        0.1699
      8 C          14.8297   43.9836    5.1632 C.3     1  UNL1        0.2526
      9 O          14.4399   43.6474    6.4884 O.3     1  UNL1       -0.4684
     10 C          16.7149   42.5665    8.1149 C.3     1  UNL1        0.2526
     11 O          15.5100   42.0326    8.6441 O.3     1  UNL1       -0.4686
     12 C          16.6350   39.9431    9.7298 C.3     1  UNL1        0.1051
     13 C          16.7977   39.6649   11.2347 C.3     1  UNL1        0.1595
     14 C          16.0499   37.5613   11.0834 C.3     1  UNL1        0.1595
     15 C          15.8549   37.6452    9.5584 C.3     1  UNL1        0.1051
     16 O          15.7958   38.7980   11.6961 O.3     1  UNL1       -0.3508
     17 N          15.6805   39.0288    9.0714 N.3     1  UNL1       -0.2624
     18 C          13.3286   38.3598    9.5438 C.ar    1  UNL1        0.0164
     19 C          11.9685   38.5674    9.7340 C.ar    1  UNL1        0.0782
     20 C          12.6201   36.1755    9.8574 C.ar    1  UNL1        0.0086
     21 C          12.6935   34.6971    9.9850 C.3     1  UNL1        0.0382
     22 C          13.7033   37.0087    9.6134 C.ar    1  UNL1        0.0013
     23 S          11.2120   37.0847    9.9906 S.2     1  UNL1       -0.0768
     24 C          11.1388   40.7120   10.8559 C.2     1  UNL1        0.2846
     25 O          11.4991   40.3575   12.0098 O.2     1  UNL1       -0.2664
     26 N          11.3441   39.8575    9.7245 N.am    1  UNL1       -0.2731
     27 H          11.0246   40.1893    8.8544 H       1  UNL1        0.1557
     28 C          10.4997   42.0184   10.6704 C.ar    1  UNL1        0.1988
     29 C           9.2784   42.3926   11.1899 C.ar    1  UNL1        0.0455
     30 C           9.0936   43.6935   10.7552 C.ar    1  UNL1        0.0440
     31 C          10.2092   44.0223   10.0041 C.ar    1  UNL1        0.1798
     32 O          11.0249   42.9962    9.9772 O.2     1  UNL1       -0.4458
@<TRIPOS>BOND
     1     8     9    1
     2     2     9    1
     3     3     4   ar
     4     5     6   ar
     5     1     6    1
     6     1    17    1
     7     1    18    1
     8    12    17    1
     9    12    13    1
    10    13    16    1
    11    14    16    1
    12    14    15    1
    13    15    17    1
    14    19    26    1
    15    19    23   ar
    16    24    28    1
    17    28    32   ar
    18    29    30   ar
    19    31    32   ar
    20    20    23   ar
    21    21    20    1
    22    22    18   ar
    23     7    11    1
    24     7     2   ar
    25    10    11    1
    26    26    24   am
    27     2     3   ar
    28     4     5   ar
    29     6     7   ar
    30    18    19   ar
    31    24    25    2
    32    28    29   ar
    33    30    31   ar
    34    20    22   ar
    35    26    27    1
@<TRIPOS>MOLECULE
MolPort-006-735-194 ChemDiv-D411-0149 MCULE-2748102922 PubChem-46740137
 32 35 0 0 0
SMALL
GASTEIGER

@<TRIPOS>ATOM
      1 C          11.8769   41.3953    7.1745 C.3     1  UNL1        0.1078
      2 C          15.5405   42.5670    7.3875 C.ar    1  UNL1        0.1721
      3 C          15.4642   43.6923    6.5510 C.ar    1  UNL1        0.0400
      4 C          14.2630   44.0544    5.9476 C.ar    1  UNL1        0.0030
      5 C          13.1181   43.2964    6.1727 C.ar    1  UNL1        0.0006
      6 C          13.1598   42.1741    7.0037 C.ar    1  UNL1        0.0335
      7 C          14.3747   41.7905    7.6196 C.ar    1  UNL1        0.1699
      8 C          17.7342   43.1825    8.3684 C.3     1  UNL1        0.2526
      9 O          16.7591   42.2221    7.9837 O.3     1  UNL1       -0.4684
     10 C          15.4148   40.2676    9.3225 C.3     1  UNL1        0.2526
     11 O          14.3675   40.6510    8.4433 O.3     1  UNL1       -0.4686
     12 C          11.2565   40.5398    4.9926 C.3     1  UNL1        0.1051
     13 C          10.6572   39.1536    5.2887 C.3     1  UNL1        0.1595
     14 C           9.1036   39.9536    6.6864 C.3     1  UNL1        0.1595
     15 C           9.5458   41.4146    6.4847 C.3     1  UNL1        0.1051
     16 O          10.1975   39.0777    6.6120 O.3     1  UNL1       -0.3508
     17 N          10.9470   41.5394    6.0345 N.3     1  UNL1       -0.2624
     18 C          11.2357   41.7062    8.5024 C.ar    1  UNL1        0.0164
     19 C          11.1317   40.7665    9.5199 C.ar    1  UNL1        0.0782
     20 C          10.1564   42.9691   10.1186 C.ar    1  UNL1        0.0086
     21 C           9.5053   44.1411   10.7587 C.3     1  UNL1        0.0382
     22 C          10.6848   42.9539    8.8350 C.ar    1  UNL1        0.0013
     23 S          10.3581   41.4651   10.8428 S.2     1  UNL1       -0.0768
     24 C          12.4500   38.7386   10.3544 C.2     1  UNL1        0.2846
     25 O          12.8767   39.3241   11.3850 O.2     1  UNL1       -0.2664
     26 N          11.6042   39.4171    9.4181 N.am    1  UNL1       -0.2731
     27 H          11.3194   38.9060    8.6264 H       1  UNL1        0.1557
     28 C          12.8259   37.3425   10.1112 C.ar    1  UNL1        0.1988
     29 C          12.1005   36.2382   10.5059 C.ar    1  UNL1        0.0455
     30 C          12.8379   35.1544   10.0622 C.ar    1  UNL1        0.0440
     31 C          13.9572   35.6691    9.4303 C.ar    1  UNL1        0.1798
     32 O          13.9133   36.9785    9.4807 O.2     1  UNL1       -0.4458
@<TRIPOS>BOND
     1     8     9    1
     2     2     9    1
     3     3     4   ar
     4     5     6   ar
     5     1     6    1
     6     1    17    1
     7     1    18    1
     8    12    17    1
     9    12    13    1
    10    13    16    1
    11    14    16    1
    12    14    15    1
    13    15    17    1
    14    19    26    1
    15    19    23   ar
    16    24    28    1
    17    28    32   ar
    18    29    30   ar
    19    31    32   ar
    20    20    23   ar
    21    21    20    1
    22    22    18   ar
    23     7    11    1
    24     7     2   ar
    25    10    11    1
    26    26    24   am
    27     2     3   ar
    28     4     5   ar
    29     6     7   ar
    30    18    19   ar
    31    24    25    2
    32    28    29   ar
    33    30    31   ar
    34    20    22   ar
    35    26    27    1
@<TRIPOS>MOLECULE
MolPort-006-735-194 ChemDiv-D411-0149 MCULE-2748102922 PubChem-46740137
 32 35 0 0 0
SMALL
GASTEIGER

@<TRIPOS>ATOM
      1 C          11.5502   40.0213    8.9423 C.3     1  UNL1        0.1078
      2 C           9.0793   39.4031    6.0522 C.ar    1  UNL1        0.1721
      3 C           9.9946   39.3141    4.9909 C.ar    1  UNL1        0.0400
      4 C          11.3625   39.4457    5.2136 C.ar    1  UNL1        0.0030
      5 C          11.8367   39.6674    6.5028 C.ar    1  UNL1        0.0006
      6 C          10.9523   39.7559    7.5808 C.ar    1  UNL1        0.0335
      7 C           9.5588   39.6297    7.3692 C.ar    1  UNL1        0.1699
      8 C           6.8162   40.3730    5.7508 C.3     1  UNL1        0.2526
      9 O           7.7083   39.2674    5.8045 O.3     1  UNL1       -0.4684
     10 C           7.6067   40.6192    8.5983 C.3     1  UNL1        0.2526
     11 O           8.7089   39.7309    8.4847 O.3     1  UNL1       -0.4686
     12 C          12.1345   37.6704    9.0418 C.3     1  UNL1        0.1051
     13 C          13.6707   37.6606    8.9516 C.3     1  UNL1        0.1595
     14 C          13.9376   38.9810   10.7384 C.3     1  UNL1        0.1595
     15 C          12.4243   39.0774   11.0051 C.3     1  UNL1        0.1051
     16 O          14.2056   38.8903    9.3639 O.3     1  UNL1       -0.3508
     17 N          11.6060   38.8204    9.8026 N.3     1  UNL1       -0.2624
     18 C          10.8709   41.1917    9.6055 C.ar    1  UNL1        0.0164
     19 C          11.3033   42.5006    9.4356 C.ar    1  UNL1        0.0782
     20 C           9.3304   42.3078   10.9295 C.ar    1  UNL1        0.0086
     21 C           8.1774   42.5150   11.8432 C.3     1  UNL1        0.0382
     22 C           9.7557   41.0762   10.4503 C.ar    1  UNL1        0.0013
     23 S          10.3135   43.5315   10.3269 S.2     1  UNL1       -0.0768
     24 C          12.4680   42.9598    7.2042 C.2     1  UNL1        0.2846
     25 O          11.4556   42.6734    6.5114 O.2     1  UNL1       -0.2664
     26 N          12.4304   42.8763    8.6339 N.am    1  UNL1       -0.2731
     27 H          13.2611   43.0991    9.1131 H       1  UNL1        0.1557
     28 C          13.7019   43.3842    6.5357 C.ar    1  UNL1        0.1988
     29 C          14.9680   42.9195    6.8229 C.ar    1  UNL1        0.0455
     30 C          15.7996   43.5978    5.9491 C.ar    1  UNL1        0.0440
     31 C          14.9881   44.4258    5.1923 C.ar    1  UNL1        0.1798
     32 O          13.7432   44.2692    5.5727 O.2     1  UNL1       -0.4458
@<TRIPOS>BOND
     1     8     9    1
     2     2     9    1
     3     3     4   ar
     4     5     6   ar
     5     1     6    1
     6     1    17    1
     7     1    18    1
     8    12    17    1
     9    12    13    1
    10    13    16    1
    11    14    16    1
    12    14    15    1
    13    15    17    1
    14    19    26    1
    15    19    23   ar
    16    24    28    1
    17    28    32   ar
    18    29    30   ar
    19    31    32   ar
    20    20    23   ar
    21    21    20    1
    22    22    18   ar
    23     7    11    1
    24     7     2   ar
    25    10    11    1
    26    26    24   am
    27     2     3   ar
    28     4     5   ar
    29     6     7   ar
    30    18    19   ar
    31    24    25    2
    32    28    29   ar
    33    30    31   ar
    34    20    22   ar
    35    26    27    1
@<TRIPOS>MOLECULE
MolPort-006-735-194 ChemDiv-D411-0149 MCULE-2748102922 PubChem-46740137
 32 35 0 0 0
SMALL
GASTEIGER

@<TRIPOS>ATOM
      1 C          12.1697   40.7665    7.4691 C.3     1  UNL1        0.1078
      2 C          15.3945   42.8440    7.1161 C.ar    1  UNL1        0.1721
      3 C          14.8878   43.9173    6.3655 C.ar    1  UNL1        0.0400
      4 C          13.5464   43.9608    5.9957 C.ar    1  UNL1        0.0030
      5 C          12.6898   42.9309    6.3723 C.ar    1  UNL1        0.0006
      6 C          13.1619   41.8517    7.1235 C.ar    1  UNL1        0.0335
      7 C          14.5240   41.7909    7.5022 C.ar    1  UNL1        0.1699
      8 C          17.6196   43.9274    7.2850 C.3     1  UNL1        0.2526
      9 O          16.7468   42.8217    7.4768 O.3     1  UNL1       -0.4684
     10 C          16.0297   40.6856    9.1790 C.3     1  UNL1        0.2526
     11 O          14.9524   40.6824    8.2536 O.3     1  UNL1       -0.4686
     12 C          10.8672   41.4262    5.5335 C.3     1  UNL1        0.1051
     13 C          10.9811   40.2262    4.5768 C.3     1  UNL1        0.1595
     14 C          10.1615   38.7673    6.0624 C.3     1  UNL1        0.1595
     15 C           9.9434   39.8476    7.1376 C.3     1  UNL1        0.1051
     16 O          11.2907   39.0518    5.2792 O.3     1  UNL1       -0.3508
     17 N          10.8090   41.0305    6.9550 N.3     1  UNL1       -0.2624
     18 C          12.1954   40.4694    8.9463 C.ar    1  UNL1        0.0164
     19 C          11.2082   40.9158    9.8153 C.ar    1  UNL1        0.0782
     20 C          12.9878   39.6061   10.9459 C.ar    1  UNL1        0.0086
     21 C          13.8778   38.8813   11.8892 C.3     1  UNL1        0.0382
     22 C          13.2054   39.7287    9.5803 C.ar    1  UNL1        0.0013
     23 S          11.5706   40.4012   11.3775 S.2     1  UNL1       -0.0768
     24 C           9.8719   43.0942    9.6900 C.2     1  UNL1        0.2846
     25 O          10.7079   43.7537   10.3632 O.2     1  UNL1       -0.2664
     26 N          10.0808   41.7043    9.4129 N.am    1  UNL1       -0.2731
     27 H           9.3807   41.2452    8.8948 H       1  UNL1        0.1557
     28 C           8.6680   43.7606    9.1841 C.ar    1  UNL1        0.1988
     29 C           8.2538   45.0311    9.5246 C.ar    1  UNL1        0.0455
     30 C           7.0846   45.2245    8.8098 C.ar    1  UNL1        0.0440
     31 C           6.8666   44.0648    8.0857 C.ar    1  UNL1        0.1798
     32 O           7.8335   43.2154    8.3363 O.2     1  UNL1       -0.4458
@<TRIPOS>BOND
     1     8     9    1
     2     2     9    1
     3     3     4   ar
     4     5     6   ar
     5     1     6    1
     6     1    17    1
     7     1    18    1
     8    12    17    1
     9    12    13    1
    10    13    16    1
    11    14    16    1
    12    14    15    1
    13    15    17    1
    14    19    26    1
    15    19    23   ar
    16    24    28    1
    17    28    32   ar
    18    29    30   ar
    19    31    32   ar
    20    20    23   ar
    21    21    20    1
    22    22    18   ar
    23     7    11    1
    24     7     2   ar
    25    10    11    1
    26    26    24   am
    27     2     3   ar
    28     4     5   ar
    29     6     7   ar
    30    18    19   ar
    31    24    25    2
    32    28    29   ar
    33    30    31   ar
    34    20    22   ar
    35    26    27    1
@<TRIPOS>MOLECULE
MolPort-006-735-194 ChemDiv-D411-0149 MCULE-2748102922 PubChem-46740137
 32 35 0 0 0
SMALL
GASTEIGER

@<TRIPOS>ATOM
      1 C          12.3453   40.0288    9.2126 C.3     1  UNL1        0.1078
      2 C          15.1816   42.1371    7.6796 C.ar    1  UNL1        0.1721
      3 C          16.2388   41.7245    8.5067 C.ar    1  UNL1        0.0400
      4 C          16.0321   40.7919    9.5195 C.ar    1  UNL1        0.0030
      5 C          14.7637   40.2561    9.7200 C.ar    1  UNL1        0.0006
      6 C          13.6922   40.6422    8.9109 C.ar    1  UNL1        0.0335
      7 C          13.8857   41.5932    7.8811 C.ar    1  UNL1        0.1699
      8 C          16.1328   44.2836    6.8788 C.3     1  UNL1        0.2526
      9 O          15.4130   43.0759    6.6675 O.3     1  UNL1       -0.4684
     10 C          12.8394   42.5075    5.7906 C.3     1  UNL1        0.2526
     11 O          12.7758   41.9533    7.0966 O.3     1  UNL1       -0.4686
     12 C          13.2204   38.0193    8.1764 C.3     1  UNL1        0.1051
     13 C          13.4668   37.0639    9.3575 C.3     1  UNL1        0.1595
     14 C          11.3477   37.1519   10.0707 C.3     1  UNL1        0.1595
     15 C          10.9083   38.0882    8.9301 C.3     1  UNL1        0.1051
     16 O          12.6709   37.4118   10.4591 O.3     1  UNL1       -0.3508
     17 N          12.0248   38.8670    8.3566 N.3     1  UNL1       -0.2624
     18 C          11.2660   41.0806    9.2088 C.ar    1  UNL1        0.0164
     19 C          10.3334   41.1901    8.1854 C.ar    1  UNL1        0.0782
     20 C          10.0342   42.8911    9.9681 C.ar    1  UNL1        0.0086
     21 C           9.6074   44.0078   10.8502 C.3     1  UNL1        0.0382
     22 C          11.1024   42.0408   10.2197 C.ar    1  UNL1        0.0013
     23 S           9.2952   42.4743    8.5165 S.2     1  UNL1       -0.0768
     24 C           9.7866   40.6735    5.7398 C.2     1  UNL1        0.2846
     25 O           9.2801   41.8054    5.5178 O.2     1  UNL1       -0.2664
     26 N          10.3010   40.3371    7.0339 N.am    1  UNL1       -0.2731
     27 H          10.6686   39.4304    7.1431 H       1  UNL1        0.1557
     28 C           9.8491   39.6872    4.6569 C.ar    1  UNL1        0.1988
     29 C          10.8856   38.8045    4.4374 C.ar    1  UNL1        0.0455
     30 C          10.5047   38.0840    3.3189 C.ar    1  UNL1        0.0440
     31 C           9.2681   38.5738    2.9345 C.ar    1  UNL1        0.1798
     32 O           8.9112   39.5295    3.7580 O.2     1  UNL1       -0.4458
@<TRIPOS>BOND
     1     8     9    1
     2     2     9    1
     3     3     4   ar
     4     5     6   ar
     5     1     6    1
     6     1    17    1
     7     1    18    1
     8    12    17    1
     9    12    13    1
    10    13    16    1
    11    14    16    1
    12    14    15    1
    13    15    17    1
    14    19    26    1
    15    19    23   ar
    16    24    28    1
    17    28    32   ar
    18    29    30   ar
    19    31    32   ar
    20    20    23   ar
    21    21    20    1
    22    22    18   ar
    23     7    11    1
    24     7     2   ar
    25    10    11    1
    26    26    24   am
    27     2     3   ar
    28     4     5   ar
    29     6     7   ar
    30    18    19   ar
    31    24    25    2
    32    28    29   ar
    33    30    31   ar
    34    20    22   ar
    35    26    27    1
@<TRIPOS>MOLECULE
MolPort-006-735-194 ChemDiv-D411-0149 MCULE-2748102922 PubChem-46740137
 32 35 0 0 0
SMALL
GASTEIGER

@<TRIPOS>ATOM
      1 C          12.8298   40.4085    8.1068 C.3     1  UNL1        0.1078
      2 C          15.5899   42.9615    7.2677 C.ar    1  UNL1        0.1721
      3 C          14.8929   43.7453    6.3339 C.ar    1  UNL1        0.0400
      4 C          13.5739   43.4529    5.9979 C.ar    1  UNL1        0.0030
      5 C          12.9306   42.3716    6.5921 C.ar    1  UNL1        0.0006
      6 C          13.5948   41.5755    7.5285 C.ar    1  UNL1        0.0335
      7 C          14.9374   41.8570    7.8761 C.ar    1  UNL1        0.1699
      8 C          17.7478   44.0751    6.7612 C.3     1  UNL1        0.2526
      9 O          16.9155   43.2745    7.5903 O.3     1  UNL1       -0.4684
     10 C          16.9296   41.1025    9.2037 C.3     1  UNL1        0.2526
     11 O          15.5645   41.0244    8.8196 O.3     1  UNL1       -0.4686
     12 C          14.1941   39.4768    9.8811 C.3     1  UNL1        0.1051
     13 C          13.1769   39.0588   10.9576 C.3     1  UNL1        0.1595
     14 C          12.0314   37.7227    9.5755 C.3     1  UNL1        0.1595
     15 C          12.9704   37.9976    8.3868 C.3     1  UNL1        0.1051
     16 O          11.9075   38.8543   10.3963 O.3     1  UNL1       -0.3508
     17 N          13.6960   39.2788    8.5052 N.3     1  UNL1       -0.2624
     18 C          11.7079   39.9971    7.1885 C.ar    1  UNL1        0.0164
     19 C          10.3887   39.9088    7.6139 C.ar    1  UNL1        0.0782
     20 C          10.6870   39.3182    5.2216 C.ar    1  UNL1        0.0086
     21 C          10.5447   38.9173    3.7981 C.3     1  UNL1        0.0382
     22 C          11.8830   39.6633    5.8362 C.ar    1  UNL1        0.0013
     23 S           9.4223   39.4172    6.3251 S.2     1  UNL1       -0.0768
     24 C           9.5165   41.4476    9.4626 C.2     1  UNL1        0.2846
     25 O           9.4953   42.4709    8.7281 O.2     1  UNL1       -0.2664
     26 N           9.9567   40.1833    8.9528 N.am    1  UNL1       -0.2731
     27 H           9.9630   39.4282    9.5845 H       1  UNL1        0.1557
     28 C           9.0843   41.5545   10.8595 C.ar    1  UNL1        0.1988
     29 C           9.8064   41.1305   11.9551 C.ar    1  UNL1        0.0455
     30 C           9.0074   41.4342   13.0435 C.ar    1  UNL1        0.0440
     31 C           7.8583   42.0197   12.5401 C.ar    1  UNL1        0.1798
     32 O           7.9424   42.0734   11.2328 O.2     1  UNL1       -0.4458
@<TRIPOS>BOND
     1     8     9    1
     2     2     9    1
     3     3     4   ar
     4     5     6   ar
     5     1     6    1
     6     1    17    1
     7     1    18    1
     8    12    17    1
     9    12    13    1
    10    13    16    1
    11    14    16    1
    12    14    15    1
    13    15    17    1
    14    19    26    1
    15    19    23   ar
    16    24    28    1
    17    28    32   ar
    18    29    30   ar
    19    31    32   ar
    20    20    23   ar
    21    21    20    1
    22    22    18   ar
    23     7    11    1
    24     7     2   ar
    25    10    11    1
    26    26    24   am
    27     2     3   ar
    28     4     5   ar
    29     6     7   ar
    30    18    19   ar
    31    24    25    2
    32    28    29   ar
    33    30    31   ar
    34    20    22   ar
    35    26    27    1
@<TRIPOS>MOLECULE
MolPort-006-735-194 ChemDiv-D411-0149 MCULE-2748102922 PubChem-46740137
 32 35 0 0 0
SMALL
GASTEIGER

@<TRIPOS>ATOM
      1 C          11.5839   39.7278    9.1947 C.3     1  UNL1        0.1078
      2 C           9.3062   42.6809   10.1597 C.ar    1  UNL1        0.1721
      3 C           9.0441   42.3339   11.4949 C.ar    1  UNL1        0.0400
      4 C           9.5942   41.1848   12.0561 C.ar    1  UNL1        0.0030
      5 C          10.4168   40.3647   11.2900 C.ar    1  UNL1        0.0006
      6 C          10.7011   40.6850    9.9602 C.ar    1  UNL1        0.0335
      7 C          10.1448   41.8468    9.3743 C.ar    1  UNL1        0.1699
      8 C           7.3998   43.9085    9.1538 C.3     1  UNL1        0.2526
      9 O           8.7423   43.8413    9.6167 O.3     1  UNL1       -0.4684
     10 C           9.5135   42.4538    7.0219 C.3     1  UNL1        0.2526
     11 O          10.4563   42.1240    8.0315 O.3     1  UNL1       -0.4686
     12 C          13.3125   40.1005   10.8533 C.3     1  UNL1        0.1051
     13 C          13.4357   38.7486   11.5783 C.3     1  UNL1        0.1595
     14 C          13.8774   37.6091    9.7038 C.3     1  UNL1        0.1595
     15 C          13.8270   38.8685    8.8197 C.3     1  UNL1        0.1051
     16 O          12.9694   37.7011   10.7699 O.3     1  UNL1       -0.3508
     17 N          13.0276   39.9607    9.4112 N.3     1  UNL1       -0.2624
     18 C          11.2026   39.6984    7.7370 C.ar    1  UNL1        0.0164
     19 C          11.9870   40.2778    6.7480 C.ar    1  UNL1        0.0782
     20 C           9.9247   39.2158    5.8646 C.ar    1  UNL1        0.0086
     21 C           8.8027   38.6831    5.0495 C.3     1  UNL1        0.0382
     22 C          10.0342   39.0969    7.2435 C.ar    1  UNL1        0.0013
     23 S          11.2469   40.0543    5.2516 S.2     1  UNL1       -0.0768
     24 C          13.5612   42.2863    6.5628 C.2     1  UNL1        0.2846
     25 O          12.7604   42.9671    5.8685 O.2     1  UNL1       -0.2664
     26 N          13.2189   40.9658    7.0002 N.am    1  UNL1       -0.2731
     27 H          13.8968   40.4831    7.5262 H       1  UNL1        0.1557
     28 C          14.8624   42.8553    6.9270 C.ar    1  UNL1        0.1988
     29 C          15.3505   44.0728    6.5017 C.ar    1  UNL1        0.0455
     30 C          16.5965   44.1801    7.0944 C.ar    1  UNL1        0.0440
     31 C          16.7824   43.0266    7.8372 C.ar    1  UNL1        0.1798
     32 O          15.7252   42.2613    7.7113 O.2     1  UNL1       -0.4458
@<TRIPOS>BOND
     1     8     9    1
     2     2     9    1
     3     3     4   ar
     4     5     6   ar
     5     1     6    1
     6     1    17    1
     7     1    18    1
     8    12    17    1
     9    12    13    1
    10    13    16    1
    11    14    16    1
    12    14    15    1
    13    15    17    1
    14    19    26    1
    15    19    23   ar
    16    24    28    1
    17    28    32   ar
    18    29    30   ar
    19    31    32   ar
    20    20    23   ar
    21    21    20    1
    22    22    18   ar
    23     7    11    1
    24     7     2   ar
    25    10    11    1
    26    26    24   am
    27     2     3   ar
    28     4     5   ar
    29     6     7   ar
    30    18    19   ar
    31    24    25    2
    32    28    29   ar
    33    30    31   ar
    34    20    22   ar
    35    26    27    1
@<TRIPOS>MOLECULE
MolPort-006-735-194 ChemDiv-D411-0149 MCULE-2748102922 PubChem-46740137
 32 35 0 0 0
SMALL
GASTEIGER

@<TRIPOS>ATOM
      1 C          12.1202   41.1476    7.8163 C.3     1  UNL1        0.1078
      2 C          15.5987   42.8012    7.7410 C.ar    1  UNL1        0.1721
      3 C          16.3195   41.8386    8.4661 C.ar    1  UNL1        0.0400
      4 C          15.6937   40.6947    8.9539 C.ar    1  UNL1        0.0030
      5 C          14.3362   40.4952    8.7228 C.ar    1  UNL1        0.0006
      6 C          13.5922   41.4316    8.0007 C.ar    1  UNL1        0.0335
      7 C          14.2132   42.6018    7.5032 C.ar    1  UNL1        0.1699
      8 C          17.6189   43.9549    6.8802 C.3     1  UNL1        0.2526
      9 O          16.2489   43.9436    7.2599 O.3     1  UNL1       -0.4684
     10 C          13.8145   44.1856    5.5971 C.3     1  UNL1        0.2526
     11 O          13.4217   43.5167    6.7867 O.3     1  UNL1       -0.4686
     12 C          11.9477   40.8862    5.4122 C.3     1  UNL1        0.1051
     13 C          11.0485   39.6504    5.2319 C.3     1  UNL1        0.1595
     14 C           9.3565   40.5185    6.4112 C.3     1  UNL1        0.1595
     15 C          10.0957   41.8450    6.6649 C.3     1  UNL1        0.1051
     16 O          10.2522   39.4390    6.3674 O.3     1  UNL1       -0.3508
     17 N          11.5643   41.7176    6.5708 N.3     1  UNL1       -0.2624
     18 C          11.3418   41.5420    9.0450 C.ar    1  UNL1        0.0164
     19 C          11.2363   40.7186   10.1586 C.ar    1  UNL1        0.0782
     20 C          10.0177   42.8663   10.4106 C.ar    1  UNL1        0.0086
     21 C           9.2106   44.0326   10.8530 C.3     1  UNL1        0.0382
     22 C          10.6536   42.7580    9.1813 C.ar    1  UNL1        0.0013
     23 S          10.2918   41.4824   11.3253 S.2     1  UNL1       -0.0768
     24 C          11.3623   38.2154    9.6444 C.2     1  UNL1        0.2846
     25 O          10.3116   38.2112    8.9495 O.2     1  UNL1       -0.2664
     26 N          11.8361   39.4205   10.2572 N.am    1  UNL1       -0.2731
     27 H          12.6546   39.3502   10.7997 H       1  UNL1        0.1557
     28 C          12.1096   36.9675    9.8279 C.ar    1  UNL1        0.1988
     29 C          11.7428   35.9300   10.6590 C.ar    1  UNL1        0.0455
     30 C          12.7404   34.9834   10.5034 C.ar    1  UNL1        0.0440
     31 C          13.6429   35.5054    9.5925 C.ar    1  UNL1        0.1798
     32 O          13.2311   36.6909    9.2130 O.2     1  UNL1       -0.4458
@<TRIPOS>BOND
     1     8     9    1
     2     2     9    1
     3     3     4   ar
     4     5     6   ar
     5     1     6    1
     6     1    17    1
     7     1    18    1
     8    12    17    1
     9    12    13    1
    10    13    16    1
    11    14    16    1
    12    14    15    1
    13    15    17    1
    14    19    26    1
    15    19    23   ar
    16    24    28    1
    17    28    32   ar
    18    29    30   ar
    19    31    32   ar
    20    20    23   ar
    21    21    20    1
    22    22    18   ar
    23     7    11    1
    24     7     2   ar
    25    10    11    1
    26    26    24   am
    27     2     3   ar
    28     4     5   ar
    29     6     7   ar
    30    18    19   ar
    31    24    25    2
    32    28    29   ar
    33    30    31   ar
    34    20    22   ar
    35    26    27    1
