@<TRIPOS>MOLECULE
MolPort-007-723-501 ChemDiv-E157-6048 MCULE-2602760675 PubChem-22518049 ZINC000006818328 ZINC06818328
 26 27 0 0 0
SMALL
GASTEIGER

@<TRIPOS>ATOM
      1 C          11.1627   40.4662    6.7739 C.ar    1  UNL1        0.2593
      2 C          13.2488   41.5613    7.1586 C.ar    1  UNL1        0.1893
      3 N          11.9516   39.8064    7.6500 N.ar    1  UNL1       -0.1187
      4 N          13.1163   40.4158    7.8638 N.ar    1  UNL1       -0.1239
      5 S          11.8908   41.8794    6.2174 S.2     1  UNL1       -0.0102
      6 C          14.4983   43.6926    6.5786 C.2     1  UNL1        0.2276
      7 N          14.3938   42.4169    7.2184 N.am    1  UNL1       -0.2627
      8 O          13.5386   44.1676    5.9164 O.2     1  UNL1       -0.2747
      9 H          15.1687   42.1042    7.7391 H       1  UNL1        0.1568
     10 C          15.7731   44.4585    6.6741 C.3     1  UNL1        0.0854
     11 C          16.9487   43.5252    6.9173 C.3     1  UNL1        0.0091
     12 C          17.6575   43.8978    8.2056 C.3     1  UNL1        0.0005
     13 C          17.9263   43.6404    5.7659 C.3     1  UNL1        0.0005
     14 S           9.5529   39.9388    6.3287 S.O2    1  UNL1        0.1010
     15 O           9.4311   38.4521    6.5160 O.2     1  UNL1       -0.1477
     16 O           9.3157   40.2637    4.8800 O.2     1  UNL1       -0.1477
     17 N           8.3770   40.7443    7.3299 N.pl3   1  UNL1       -0.1888
     18 C           8.7804   41.5364    8.4657 C.ar    1  UNL1        0.0685
     19 C           8.5019   42.9124    8.5176 C.ar    1  UNL1        0.0119
     20 C           8.8853   43.6775    9.6216 C.ar    1  UNL1       -0.0206
     21 C           8.5783   45.1312    9.6601 C.3     1  UNL1        0.0311
     22 C           9.5551   43.0761   10.6895 C.ar    1  UNL1       -0.0042
     23 C           9.8396   41.7091   10.6528 C.ar    1  UNL1        0.0010
     24 C           9.4532   40.9440    9.5487 C.ar    1  UNL1        0.0161
     25 C           6.4700   41.6330    6.0898 C.3     1  UNL1        0.0252
     26 C           6.9602   40.5527    7.0354 C.3     1  UNL1        0.1160
@<TRIPOS>BOND
     1    25    26    1
     2    26    17    1
     3    19    20   ar
     4    21    20    1
     5    22    23   ar
     6    24    18   ar
     7     1     5   ar
     8     2     7    1
     9     2     5   ar
    10    10     6    1
    11    10    11    1
    12    11    12    1
    13    11    13    1
    14    17    18    1
    15     3     4   ar
    16     7     6   am
    17    14    17    1
    18    14     1    1
    19    18    19   ar
    20    20    22   ar
    21    23    24   ar
    22     1     3   ar
    23     2     4   ar
    24     6     8    2
    25    14    15    2
    26    14    16    2
    27     7     9    1
@<TRIPOS>MOLECULE
MolPort-007-723-501 ChemDiv-E157-6048 MCULE-2602760675 PubChem-22518049 ZINC000006818328 ZINC06818328
 26 27 0 0 0
SMALL
GASTEIGER

@<TRIPOS>ATOM
      1 C           9.3080   41.7402    6.5620 C.ar    1  UNL1        0.2593
      2 C          11.6905   41.6486    6.6832 C.ar    1  UNL1        0.1893
      3 N           9.8919   41.5718    5.3553 N.ar    1  UNL1       -0.1187
      4 N          11.2211   41.5224    5.4220 N.ar    1  UNL1       -0.1239
      5 S          10.4456   41.8278    7.8010 S.2     1  UNL1       -0.0102
      6 C          13.9732   42.7244    6.9518 C.2     1  UNL1        0.2276
      7 N          13.0767   41.6121    7.0349 N.am    1  UNL1       -0.2627
      8 O          13.5718   43.8549    6.5701 O.2     1  UNL1       -0.2747
      9 H          13.4416   40.7569    7.3585 H       1  UNL1        0.1568
     10 C          15.4107   42.5346    7.2957 C.3     1  UNL1        0.0854
     11 C          16.1695   43.8486    7.1962 C.3     1  UNL1        0.0091
     12 C          16.8895   43.9399    5.8642 C.3     1  UNL1        0.0005
     13 C          17.1893   43.9241    8.3138 C.3     1  UNL1        0.0005
     14 S           7.5739   41.7941    6.8027 S.O2    1  UNL1        0.1010
     15 O           7.0096   40.4010    6.7743 O.2     1  UNL1       -0.1477
     16 O           6.9510   42.5901    5.6897 O.2     1  UNL1       -0.1477
     17 N           7.2209   42.5280    8.3425 N.pl3   1  UNL1       -0.1888
     18 C           5.9124   42.4190    8.9392 C.ar    1  UNL1        0.0685
     19 C           5.6290   41.4054    9.8697 C.ar    1  UNL1        0.0119
     20 C           4.3641   41.3054   10.4538 C.ar    1  UNL1       -0.0206
     21 C           4.0844   40.2285   11.4393 C.3     1  UNL1        0.0311
     22 C           3.3634   42.2182   10.1131 C.ar    1  UNL1       -0.0042
     23 C           3.6293   43.2315    9.1893 C.ar    1  UNL1        0.0010
     24 C           4.8962   43.3321    8.6074 C.ar    1  UNL1        0.0161
     25 C           7.8929   44.7862    8.9850 C.3     1  UNL1        0.0252
     26 C           8.2620   43.3148    8.9964 C.3     1  UNL1        0.1160
@<TRIPOS>BOND
     1    25    26    1
     2    26    17    1
     3    19    20   ar
     4    21    20    1
     5    22    23   ar
     6    24    18   ar
     7     1     5   ar
     8     2     7    1
     9     2     5   ar
    10    10     6    1
    11    10    11    1
    12    11    12    1
    13    11    13    1
    14    17    18    1
    15     3     4   ar
    16     7     6   am
    17    14    17    1
    18    14     1    1
    19    18    19   ar
    20    20    22   ar
    21    23    24   ar
    22     1     3   ar
    23     2     4   ar
    24     6     8    2
    25    14    15    2
    26    14    16    2
    27     7     9    1
@<TRIPOS>MOLECULE
MolPort-007-723-501 ChemDiv-E157-6048 MCULE-2602760675 PubChem-22518049 ZINC000006818328 ZINC06818328
 26 27 0 0 0
SMALL
GASTEIGER

@<TRIPOS>ATOM
      1 C          11.0724   41.0363    8.0176 C.ar    1  UNL1        0.2593
      2 C          13.1051   41.9363    7.1475 C.ar    1  UNL1        0.1893
      3 N          11.0100   41.2974    6.6935 N.ar    1  UNL1       -0.1187
      4 N          12.1431   41.8011    6.2077 N.ar    1  UNL1       -0.1239
      5 S          12.5811   41.4201    8.6608 S.2     1  UNL1       -0.0102
      6 C          14.7158   43.6102    6.1258 C.2     1  UNL1        0.2276
      7 N          14.4204   42.4360    6.8885 N.am    1  UNL1       -0.2627
      8 O          13.7949   44.3156    5.6365 O.2     1  UNL1       -0.2747
      9 H          15.1798   41.9340    7.2634 H       1  UNL1        0.1568
     10 C          16.1367   43.9884    5.8830 C.3     1  UNL1        0.0854
     11 C          16.9283   43.9820    7.1813 C.3     1  UNL1        0.0091
     12 C          18.3811   44.3258    6.9125 C.3     1  UNL1        0.0005
     13 C          16.8555   42.6038    7.8056 C.3     1  UNL1        0.0005
     14 S           9.7578   40.3241    8.9301 S.O2    1  UNL1        0.1010
     15 O          10.2309   39.0746    9.6192 O.2     1  UNL1       -0.1477
     16 O           8.6466   39.9624    7.9842 O.2     1  UNL1       -0.1477
     17 N           9.1917   41.4610   10.1222 N.pl3   1  UNL1       -0.1888
     18 C           8.5461   42.6909    9.7339 C.ar    1  UNL1        0.0685
     19 C           7.2736   42.6777    9.1386 C.ar    1  UNL1        0.0119
     20 C           6.6451   43.8695    8.7705 C.ar    1  UNL1       -0.0206
     21 C           5.2970   43.8356    8.1454 C.3     1  UNL1        0.0311
     22 C           7.2824   45.0925    8.9914 C.ar    1  UNL1       -0.0042
     23 C           8.5478   45.1224    9.5820 C.ar    1  UNL1        0.0010
     24 C           9.1748   43.9292    9.9523 C.ar    1  UNL1        0.0161
     25 C           8.1496   41.2865   12.3239 C.3     1  UNL1        0.0252
     26 C           9.4389   41.1757   11.5322 C.3     1  UNL1        0.1160
@<TRIPOS>BOND
     1    25    26    1
     2    26    17    1
     3    19    20   ar
     4    21    20    1
     5    22    23   ar
     6    24    18   ar
     7     1     5   ar
     8     2     7    1
     9     2     5   ar
    10    10     6    1
    11    10    11    1
    12    11    12    1
    13    11    13    1
    14    17    18    1
    15     3     4   ar
    16     7     6   am
    17    14    17    1
    18    14     1    1
    19    18    19   ar
    20    20    22   ar
    21    23    24   ar
    22     1     3   ar
    23     2     4   ar
    24     6     8    2
    25    14    15    2
    26    14    16    2
    27     7     9    1
@<TRIPOS>MOLECULE
MolPort-007-723-501 ChemDiv-E157-6048 MCULE-2602760675 PubChem-22518049 ZINC000006818328 ZINC06818328
 26 27 0 0 0
SMALL
GASTEIGER

@<TRIPOS>ATOM
      1 C          10.8412   41.7669    9.7419 C.ar    1  UNL1        0.2593
      2 C           8.7762   42.9649    9.7501 C.ar    1  UNL1        0.1893
      3 N          10.9959   43.0839   10.0003 N.ar    1  UNL1       -0.1187
      4 N           9.8445   43.7532   10.0034 N.ar    1  UNL1       -0.1239
      5 S           9.2232   41.3607    9.5089 S.2     1  UNL1       -0.0102
      6 C           6.3193   42.6929    9.1758 C.2     1  UNL1        0.2276
      7 N           7.4232   43.4282    9.7130 N.am    1  UNL1       -0.2627
      8 O           6.4771   41.5359    8.7053 O.2     1  UNL1       -0.2747
      9 H           7.2375   44.3205   10.0852 H       1  UNL1        0.1568
     10 C           4.9667   43.3178    9.1472 C.3     1  UNL1        0.0854
     11 C           4.9441   44.5177    8.2134 C.3     1  UNL1        0.0091
     12 C           3.5150   44.8738    7.8501 C.3     1  UNL1        0.0005
     13 C           5.7053   44.1818    6.9475 C.3     1  UNL1        0.0005
     14 S          12.1645   40.6196    9.7191 S.O2    1  UNL1        0.1010
     15 O          12.5642   40.2710   11.1258 O.2     1  UNL1       -0.1477
     16 O          13.3415   41.2456    9.0240 O.2     1  UNL1       -0.1477
     17 N          11.6685   39.1730    8.8853 N.pl3   1  UNL1       -0.1888
     18 C          12.1420   37.8743    9.2968 C.ar    1  UNL1        0.0685
     19 C          13.4132   37.4174    8.9109 C.ar    1  UNL1        0.0119
     20 C          13.8748   36.1631    9.3167 C.ar    1  UNL1       -0.0206
     21 C          15.2243   35.6986    8.9016 C.3     1  UNL1        0.0311
     22 C          13.0692   35.3467   10.1137 C.ar    1  UNL1       -0.0042
     23 C          11.8027   35.7864   10.5055 C.ar    1  UNL1        0.0010
     24 C          11.3429   37.0429   10.1009 C.ar    1  UNL1        0.0161
     25 C          11.5973   39.8476    6.5392 C.3     1  UNL1        0.0252
     26 C          10.8072   39.3024    7.7139 C.3     1  UNL1        0.1160
@<TRIPOS>BOND
     1    25    26    1
     2    26    17    1
     3    19    20   ar
     4    21    20    1
     5    22    23   ar
     6    24    18   ar
     7     1     5   ar
     8     2     7    1
     9     2     5   ar
    10    10     6    1
    11    10    11    1
    12    11    12    1
    13    11    13    1
    14    17    18    1
    15     3     4   ar
    16     7     6   am
    17    14    17    1
    18    14     1    1
    19    18    19   ar
    20    20    22   ar
    21    23    24   ar
    22     1     3   ar
    23     2     4   ar
    24     6     8    2
    25    14    15    2
    26    14    16    2
    27     7     9    1
@<TRIPOS>MOLECULE
MolPort-007-723-501 ChemDiv-E157-6048 MCULE-2602760675 PubChem-22518049 ZINC000006818328 ZINC06818328
 26 27 0 0 0
SMALL
GASTEIGER

@<TRIPOS>ATOM
      1 C           8.7641   40.1109    6.1563 C.ar    1  UNL1        0.2593
      2 C           6.5329   40.2652    6.9914 C.ar    1  UNL1        0.1893
      3 N           7.9333   39.1929    5.6155 N.ar    1  UNL1       -0.1187
      4 N           6.6889   39.2773    6.0822 N.ar    1  UNL1       -0.1239
      5 S           7.9676   41.1021    7.2608 S.2     1  UNL1       -0.0102
      6 C           5.1703   41.1341    8.9479 C.2     1  UNL1        0.2276
      7 N           5.2945   40.5814    7.6338 N.am    1  UNL1       -0.2627
      8 O           6.1883   41.4079    9.6362 O.2     1  UNL1       -0.2747
      9 H           4.4647   40.4054    7.1340 H       1  UNL1        0.1568
     10 C           3.8142   41.3629    9.5219 C.3     1  UNL1        0.0854
     11 C           3.8781   41.4675   11.0375 C.3     1  UNL1        0.0091
     12 C           3.8897   40.0841   11.6597 C.3     1  UNL1        0.0005
     13 C           2.6648   42.2232   11.5391 C.3     1  UNL1        0.0005
     14 S          10.4483   40.2810    5.7064 S.O2    1  UNL1        0.1010
     15 O          10.6653   41.6037    5.0254 O.2     1  UNL1       -0.1477
     16 O          10.8117   39.1800    4.7493 O.2     1  UNL1       -0.1477
     17 N          11.4448   40.1964    7.1325 N.pl3   1  UNL1       -0.1888
     18 C          12.6763   40.9411    7.2284 C.ar    1  UNL1        0.0685
     19 C          12.9036   42.0619    6.4124 C.ar    1  UNL1        0.0119
     20 C          14.0928   42.7879    6.5115 C.ar    1  UNL1       -0.0206
     21 C          14.3136   43.9733    5.6424 C.3     1  UNL1        0.0311
     22 C          15.0730   42.4011    7.4281 C.ar    1  UNL1       -0.0042
     23 C          14.8622   41.2889    8.2463 C.ar    1  UNL1        0.0010
     24 C          13.6707   40.5646    8.1480 C.ar    1  UNL1        0.0161
     25 C          10.6605   40.1067    9.4436 C.3     1  UNL1        0.0252
     26 C          11.0417   39.3033    8.2145 C.3     1  UNL1        0.1160
@<TRIPOS>BOND
     1    25    26    1
     2    26    17    1
     3    19    20   ar
     4    21    20    1
     5    22    23   ar
     6    24    18   ar
     7     1     5   ar
     8     2     7    1
     9     2     5   ar
    10    10     6    1
    11    10    11    1
    12    11    12    1
    13    11    13    1
    14    17    18    1
    15     3     4   ar
    16     7     6   am
    17    14    17    1
    18    14     1    1
    19    18    19   ar
    20    20    22   ar
    21    23    24   ar
    22     1     3   ar
    23     2     4   ar
    24     6     8    2
    25    14    15    2
    26    14    16    2
    27     7     9    1
@<TRIPOS>MOLECULE
MolPort-007-723-501 ChemDiv-E157-6048 MCULE-2602760675 PubChem-22518049 ZINC000006818328 ZINC06818328
 26 27 0 0 0
SMALL
GASTEIGER

@<TRIPOS>ATOM
      1 C           9.2340   42.1747    9.2461 C.ar    1  UNL1        0.2593
      2 C           6.8722   41.8408    9.3459 C.ar    1  UNL1        0.1893
      3 N           8.6356   42.2720    8.0387 N.ar    1  UNL1       -0.1187
      4 N           7.3182   42.0841    8.0934 N.ar    1  UNL1       -0.1239
      5 S           8.1236   41.8520   10.4708 S.2     1  UNL1       -0.0102
      6 C           4.4906   42.6364    9.7132 C.2     1  UNL1        0.2276
      7 N           5.4997   41.6220    9.6846 N.am    1  UNL1       -0.2627
      8 O           4.7584   43.8276    9.4063 O.2     1  UNL1       -0.2747
      9 H           5.2287   40.7041    9.9154 H       1  UNL1        0.1568
     10 C           3.1074   42.2826   10.1403 C.3     1  UNL1        0.0854
     11 C           3.0660   41.9547   11.6246 C.3     1  UNL1        0.0091
     12 C           3.3666   40.4845   11.8464 C.3     1  UNL1        0.0005
     13 C           1.6858   42.2629   12.1674 C.3     1  UNL1        0.0005
     14 S          10.9491   42.4207    9.5026 S.O2    1  UNL1        0.1010
     15 O          11.3345   41.9466   10.8762 O.2     1  UNL1       -0.1477
     16 O          11.2530   43.8893    9.3959 O.2     1  UNL1       -0.1477
     17 N          11.8517   41.5278    8.3101 N.pl3   1  UNL1       -0.1888
     18 C          13.2852   41.6516    8.2116 C.ar    1  UNL1        0.0685
     19 C          14.1315   40.8387    8.9840 C.ar    1  UNL1        0.0119
     20 C          15.5199   40.9530    8.8821 C.ar    1  UNL1       -0.0206
     21 C          16.3990   40.0815    9.7047 C.3     1  UNL1        0.0311
     22 C          16.0816   41.8847    8.0062 C.ar    1  UNL1       -0.0042
     23 C          15.2537   42.7005    7.2316 C.ar    1  UNL1        0.0010
     24 C          13.8644   42.5834    7.3325 C.ar    1  UNL1        0.0161
     25 C          11.3346   41.1932    5.9469 C.3     1  UNL1        0.0252
     26 C          11.1208   40.6918    7.3626 C.3     1  UNL1        0.1160
@<TRIPOS>BOND
     1    25    26    1
     2    26    17    1
     3    19    20   ar
     4    21    20    1
     5    22    23   ar
     6    24    18   ar
     7     1     5   ar
     8     2     7    1
     9     2     5   ar
    10    10     6    1
    11    10    11    1
    12    11    12    1
    13    11    13    1
    14    17    18    1
    15     3     4   ar
    16     7     6   am
    17    14    17    1
    18    14     1    1
    19    18    19   ar
    20    20    22   ar
    21    23    24   ar
    22     1     3   ar
    23     2     4   ar
    24     6     8    2
    25    14    15    2
    26    14    16    2
    27     7     9    1
@<TRIPOS>MOLECULE
MolPort-007-723-501 ChemDiv-E157-6048 MCULE-2602760675 PubChem-22518049 ZINC000006818328 ZINC06818328
 26 27 0 0 0
SMALL
GASTEIGER

@<TRIPOS>ATOM
      1 C           9.5921   41.8461    9.1049 C.ar    1  UNL1        0.2593
      2 C           7.2451   41.4147    9.1736 C.ar    1  UNL1        0.1893
      3 N           8.9593   42.1850    7.9604 N.ar    1  UNL1       -0.1187
      4 N           7.6502   41.9430    7.9973 N.ar    1  UNL1       -0.1239
      5 S           8.5247   41.2229   10.2492 S.2     1  UNL1       -0.0102
      6 C           5.2903   41.1917   10.7764 C.2     1  UNL1        0.2276
      7 N           5.8892   41.0782    9.4817 N.am    1  UNL1       -0.2627
      8 O           5.9430   41.6355   11.7573 O.2     1  UNL1       -0.2747
      9 H           5.3254   40.7431    8.7475 H       1  UNL1        0.1568
     10 C           3.8802   40.7513   10.9731 C.3     1  UNL1        0.0854
     11 C           2.9156   41.6928   10.2693 C.3     1  UNL1        0.0091
     12 C           2.3585   41.0369    9.0202 C.3     1  UNL1        0.0005
     13 C           3.6485   42.9589    9.8761 C.3     1  UNL1        0.0005
     14 S          11.3050   42.0906    9.3766 S.O2    1  UNL1        0.1010
     15 O          11.7363   41.3584   10.6169 O.2     1  UNL1       -0.1477
     16 O          11.5643   43.5590    9.5683 O.2     1  UNL1       -0.1477
     17 N          12.2042   41.4905    8.0108 N.pl3   1  UNL1       -0.1888
     18 C          13.4991   42.0291    7.6743 C.ar    1  UNL1        0.0685
     19 C          13.6166   43.1333    6.8137 C.ar    1  UNL1        0.0119
     20 C          14.8705   43.6599    6.4948 C.ar    1  UNL1       -0.0206
     21 C          14.9744   44.8310    5.5854 C.3     1  UNL1        0.0311
     22 C          16.0257   43.0873    7.0317 C.ar    1  UNL1       -0.0042
     23 C          15.9256   41.9889    7.8887 C.ar    1  UNL1        0.0010
     24 C          14.6702   41.4644    8.2092 C.ar    1  UNL1        0.0161
     25 C          11.4499   40.9765    5.7457 C.3     1  UNL1        0.0252
     26 C          11.5937   40.4674    7.1675 C.3     1  UNL1        0.1160
@<TRIPOS>BOND
     1    25    26    1
     2    26    17    1
     3    19    20   ar
     4    21    20    1
     5    22    23   ar
     6    24    18   ar
     7     1     5   ar
     8     2     7    1
     9     2     5   ar
    10    10     6    1
    11    10    11    1
    12    11    12    1
    13    11    13    1
    14    17    18    1
    15     3     4   ar
    16     7     6   am
    17    14    17    1
    18    14     1    1
    19    18    19   ar
    20    20    22   ar
    21    23    24   ar
    22     1     3   ar
    23     2     4   ar
    24     6     8    2
    25    14    15    2
    26    14    16    2
    27     7     9    1
@<TRIPOS>MOLECULE
MolPort-007-723-501 ChemDiv-E157-6048 MCULE-2602760675 PubChem-22518049 ZINC000006818328 ZINC06818328
 26 27 0 0 0
SMALL
GASTEIGER

@<TRIPOS>ATOM
      1 C           7.2407   41.5522    7.9949 C.ar    1  UNL1        0.2593
      2 C           9.3179   41.5343    6.8185 C.ar    1  UNL1        0.1893
      3 N           7.7036   40.3049    7.7600 N.ar    1  UNL1       -0.1187
      4 N           8.8615   40.2940    7.1022 N.ar    1  UNL1       -0.1239
      5 S           8.2809   42.7303    7.3890 S.2     1  UNL1       -0.0102
      6 C          11.8125   41.9977    6.7727 C.2     1  UNL1        0.2276
      7 N          10.5457   41.8048    6.1358 N.am    1  UNL1       -0.2627
      8 O          11.9301   41.9140    8.0234 O.2     1  UNL1       -0.2747
      9 H          10.5169   41.8626    5.1534 H       1  UNL1        0.1568
     10 C          13.0061   42.3308    5.9449 C.3     1  UNL1        0.0854
     11 C          13.9344   43.2776    6.6893 C.3     1  UNL1        0.0091
     12 C          14.4371   44.3624    5.7559 C.3     1  UNL1        0.0005
     13 C          15.1192   42.4998    7.2242 C.3     1  UNL1        0.0005
     14 S           5.7680   41.8908    8.8805 S.O2    1  UNL1        0.1010
     15 O           4.7030   40.8998    8.5010 O.2     1  UNL1       -0.1477
     16 O           5.2910   43.2716    8.5253 O.2     1  UNL1       -0.1477
     17 N           6.0767   41.7786   10.5911 N.pl3   1  UNL1       -0.1888
     18 C           7.4216   41.6785   11.1023 C.ar    1  UNL1        0.0685
     19 C           7.6561   41.3657   12.4517 C.ar    1  UNL1        0.0119
     20 C           8.9589   41.2604   12.9443 C.ar    1  UNL1       -0.0206
     21 C           9.1871   40.9247   14.3742 C.3     1  UNL1        0.0311
     22 C          10.0466   41.4686   12.0931 C.ar    1  UNL1       -0.0042
     23 C           9.8300   41.7806   10.7490 C.ar    1  UNL1        0.0010
     24 C           8.5258   41.8832   10.2565 C.ar    1  UNL1        0.0161
     25 C           4.3199   40.3397   11.4897 C.3     1  UNL1        0.0252
     26 C           4.9391   41.7246   11.5042 C.3     1  UNL1        0.1160
@<TRIPOS>BOND
     1    25    26    1
     2    26    17    1
     3    19    20   ar
     4    21    20    1
     5    22    23   ar
     6    24    18   ar
     7     1     5   ar
     8     2     7    1
     9     2     5   ar
    10    10     6    1
    11    10    11    1
    12    11    12    1
    13    11    13    1
    14    17    18    1
    15     3     4   ar
    16     7     6   am
    17    14    17    1
    18    14     1    1
    19    18    19   ar
    20    20    22   ar
    21    23    24   ar
    22     1     3   ar
    23     2     4   ar
    24     6     8    2
    25    14    15    2
    26    14    16    2
    27     7     9    1
@<TRIPOS>MOLECULE
MolPort-007-723-501 ChemDiv-E157-6048 MCULE-2602760675 PubChem-22518049 ZINC000006818328 ZINC06818328
 26 27 0 0 0
SMALL
GASTEIGER

@<TRIPOS>ATOM
      1 C           9.3289   42.3746    8.2803 C.ar    1  UNL1        0.2593
      2 C           9.7446   41.2782    6.2008 C.ar    1  UNL1        0.1893
      3 N          10.5596   41.8213    8.2120 N.ar    1  UNL1       -0.1187
      4 N          10.7916   41.2080    7.0529 N.ar    1  UNL1       -0.1239
      5 S           8.4528   42.1293    6.8628 S.2     1  UNL1       -0.0102
      6 C           9.1177   39.4798    4.5236 C.2     1  UNL1        0.2276
      7 N           9.7377   40.7181    4.8845 N.am    1  UNL1       -0.2627
      8 O           8.4953   38.7927    5.3754 O.2     1  UNL1       -0.2747
      9 H          10.1939   41.2228    4.1729 H       1  UNL1        0.1568
     10 C           9.2346   38.9820    3.1239 C.3     1  UNL1        0.0854
     11 C          10.3813   37.9915    2.9954 C.3     1  UNL1        0.0091
     12 C           9.9346   36.6106    3.4367 C.3     1  UNL1        0.0005
     13 C          11.5320   38.4408    3.8720 C.3     1  UNL1        0.0005
     14 S           8.7505   43.2895    9.6574 S.O2    1  UNL1        0.1010
     15 O           7.8703   44.4154    9.1908 O.2     1  UNL1       -0.1477
     16 O           9.9294   43.8695   10.3883 O.2     1  UNL1       -0.1477
     17 N           7.8394   42.2442   10.7116 N.pl3   1  UNL1       -0.1888
     18 C           6.4959   41.8372   10.3808 C.ar    1  UNL1        0.0685
     19 C           5.4623   41.9331   11.3275 C.ar    1  UNL1        0.0119
     20 C           4.1596   41.5468   11.0041 C.ar    1  UNL1       -0.0206
     21 C           3.0784   41.6593   12.0179 C.3     1  UNL1        0.0311
     22 C           3.8728   41.0567    9.7280 C.ar    1  UNL1       -0.0042
     23 C           4.8895   40.9549    8.7757 C.ar    1  UNL1        0.0010
     24 C           6.1923   41.3443    9.0997 C.ar    1  UNL1        0.0161
     25 C           9.7150   41.0513   11.7232 C.3     1  UNL1        0.0252
     26 C           8.4399   41.8330   11.9769 C.3     1  UNL1        0.1160
@<TRIPOS>BOND
     1    25    26    1
     2    26    17    1
     3    19    20   ar
     4    21    20    1
     5    22    23   ar
     6    24    18   ar
     7     1     5   ar
     8     2     7    1
     9     2     5   ar
    10    10     6    1
    11    10    11    1
    12    11    12    1
    13    11    13    1
    14    17    18    1
    15     3     4   ar
    16     7     6   am
    17    14    17    1
    18    14     1    1
    19    18    19   ar
    20    20    22   ar
    21    23    24   ar
    22     1     3   ar
    23     2     4   ar
    24     6     8    2
    25    14    15    2
    26    14    16    2
    27     7     9    1
@<TRIPOS>MOLECULE
MolPort-007-723-501 ChemDiv-E157-6048 MCULE-2602760675 PubChem-22518049 ZINC000006818328 ZINC06818328
 26 27 0 0 0
SMALL
GASTEIGER

@<TRIPOS>ATOM
      1 C          10.6521   41.3749    7.9014 C.ar    1  UNL1        0.2593
      2 C           8.4252   41.2085    8.7454 C.ar    1  UNL1        0.1893
      3 N          10.0037   40.2724    7.4664 N.ar    1  UNL1       -0.1187
      4 N           8.7619   40.1779    7.9383 N.ar    1  UNL1       -0.1239
      5 S           9.6837   42.3131    8.9108 S.2     1  UNL1       -0.0102
      6 C           6.9335   41.5180   10.7749 C.2     1  UNL1        0.2276
      7 N           7.1465   41.3598    9.3687 N.am    1  UNL1       -0.2627
      8 O           7.9022   41.5583   11.5780 O.2     1  UNL1       -0.2747
      9 H           6.3529   41.3547    8.7861 H       1  UNL1        0.1568
     10 C           5.5417   41.6080   11.3000 C.3     1  UNL1        0.0854
     11 C           4.5506   41.0127   10.3124 C.3     1  UNL1        0.0091
     12 C           3.6360   42.0942    9.7694 C.3     1  UNL1        0.0005
     13 C           3.7118   39.9648   11.0145 C.3     1  UNL1        0.0005
     14 S          12.2804   41.7993    7.4150 S.O2    1  UNL1        0.1010
     15 O          12.5056   43.2728    7.6107 O.2     1  UNL1       -0.1477
     16 O          12.4552   41.4737    5.9576 O.2     1  UNL1       -0.1477
     17 N          13.4276   40.9080    8.3759 N.pl3   1  UNL1       -0.1888
     18 C          14.8188   41.2861    8.4195 C.ar    1  UNL1        0.0685
     19 C          15.3032   42.3366    7.6223 C.ar    1  UNL1        0.0119
     20 C          16.6488   42.7081    7.6711 C.ar    1  UNL1       -0.0206
     21 C          17.1420   43.8247    6.8230 C.3     1  UNL1        0.0311
     22 C          17.5300   42.0317    8.5178 C.ar    1  UNL1       -0.0042
     23 C          17.0638   40.9849    9.3164 C.ar    1  UNL1        0.0010
     24 C          15.7165   40.6157    9.2687 C.ar    1  UNL1        0.0161
     25 C          12.6240   40.0804   10.5284 C.3     1  UNL1        0.0252
     26 C          12.9666   39.7239    9.0943 C.3     1  UNL1        0.1160
@<TRIPOS>BOND
     1    25    26    1
     2    26    17    1
     3    19    20   ar
     4    21    20    1
     5    22    23   ar
     6    24    18   ar
     7     1     5   ar
     8     2     7    1
     9     2     5   ar
    10    10     6    1
    11    10    11    1
    12    11    12    1
    13    11    13    1
    14    17    18    1
    15     3     4   ar
    16     7     6   am
    17    14    17    1
    18    14     1    1
    19    18    19   ar
    20    20    22   ar
    21    23    24   ar
    22     1     3   ar
    23     2     4   ar
    24     6     8    2
    25    14    15    2
    26    14    16    2
    27     7     9    1
