@<TRIPOS>MOLECULE
MolPort-047-592-445 211610127 MCULE-9931270561 PubChem-76850009 ZINC000211610127
 23 24 0 0 0
SMALL
GASTEIGER

@<TRIPOS>ATOM
      1 C          14.0415   41.2279    7.7973 C.ar    1  UNL1        0.0000
      2 C          14.9276   40.6871    8.7298 C.ar    1  UNL1        0.0000
      3 C          16.1858   41.2601    8.9250 C.ar    1  UNL1        0.0000
      4 C          16.5237   42.4208    8.1998 C.ar    1  UNL1        0.0000
      5 C          14.4269   42.3554    7.0714 C.ar    1  UNL1        0.0000
      6 N          15.6422   42.9238    7.2887 N.ar    1  UNL1        0.0000
      7 B          12.6359   40.5767    7.5675 B       1  UNL1        0.0000
      8 O          11.4474   41.3776    7.8089 O.3     1  UNL1        0.0000
      9 O          12.4475   39.1795    7.9201 O.3     1  UNL1        0.0000
     10 C          10.8851   40.7191    8.9130 C.3     1  UNL1        0.0000
     11 C          11.5466   39.2807    8.9908 C.3     1  UNL1        0.0000
     12 C          10.5388   38.1432    8.8529 C.3     1  UNL1        0.0000
     13 C          12.3092   39.0248   10.2926 C.3     1  UNL1        0.0000
     14 C          11.1232   41.5728   10.1604 C.3     1  UNL1        0.0000
     15 C           9.3742   40.6788    8.7021 C.3     1  UNL1        0.0000
     16 O          16.7473   38.4245    9.3623 O.2     1  UNL1        0.0000
     17 C          17.4047   39.2961    9.9913 C.2     1  UNL1        0.0000
     18 N          17.0579   40.6821    9.9046 N.am    1  UNL1        0.0000
     19 H          17.4509   41.2886   10.5731 H       1  UNL1        0.0000
     20 C          18.5393   38.8769   10.8563 C.3     1  UNL1        0.0000
     21 C          19.1732   37.6186   10.2978 C.3     1  UNL1        0.0000
     22 O          17.7371   43.0721    8.4347 O.3     1  UNL1        0.0000
     23 C          18.2716   44.0244    7.5276 C.3     1  UNL1        0.0000
@<TRIPOS>BOND
     1     7     8    1
     2     7     1    1
     3     7     9    1
     4    10     8    1
     5    10    11    1
     6    10    14    1
     7    10    15    1
     8    11     9    1
     9    11    12    1
    10    11    13    1
    11     2     3   ar
    12     3    18    1
    13     4     6   ar
    14     4    22    1
    15     5     1   ar
    16    23    22    1
    17    20    17    1
    18    20    21    1
    19    18    17   am
    20     1     2   ar
    21     3     4   ar
    22     5     6   ar
    23    17    16    2
    24    18    19    1
@<TRIPOS>MOLECULE
MolPort-047-592-445 211610127 MCULE-9931270561 PubChem-76850009 ZINC000211610127
 23 24 0 0 0
SMALL
GASTEIGER

@<TRIPOS>ATOM
      1 C           9.7046   41.8279    9.6798 C.ar    1  UNL1        0.0000
      2 C           8.3385   41.7670    9.9576 C.ar    1  UNL1        0.0000
      3 C           7.8911   41.5491   11.2622 C.ar    1  UNL1        0.0000
      4 C           8.8417   41.4414   12.2976 C.ar    1  UNL1        0.0000
      5 C          10.6159   41.6792   10.7259 C.ar    1  UNL1        0.0000
      6 N          10.1709   41.4964   11.9970 N.ar    1  UNL1        0.0000
      7 B          10.2072   42.0576    8.2144 B       1  UNL1        0.0000
      8 O           9.8664   41.0767    7.1976 O.3     1  UNL1        0.0000
      9 O          11.5242   42.6372    8.0107 O.3     1  UNL1        0.0000
     10 C          11.1273   40.5445    6.8877 C.3     1  UNL1        0.0000
     11 C          12.2145   41.5638    7.4279 C.3     1  UNL1        0.0000
     12 C          13.1079   42.1335    6.3297 C.3     1  UNL1        0.0000
     13 C          13.1523   40.9628    8.4773 C.3     1  UNL1        0.0000
     14 C          11.2314   39.1497    7.5081 C.3     1  UNL1        0.0000
     15 C          11.1826   40.3472    5.3755 C.3     1  UNL1        0.0000
     16 O           5.7614   42.6462    9.5865 O.2     1  UNL1        0.0000
     17 C           5.4677   41.9414   10.5887 C.2     1  UNL1        0.0000
     18 N           6.4791   41.5101   11.5052 N.am    1  UNL1        0.0000
     19 H           6.1801   41.1574   12.3744 H       1  UNL1        0.0000
     20 C           4.0481   41.5750   10.8377 C.3     1  UNL1        0.0000
     21 C           3.9688   40.1551   11.3617 C.3     1  UNL1        0.0000
     22 O           8.4281   41.3131   13.6257 O.3     1  UNL1        0.0000
     23 C           9.3269   40.9605   14.6665 C.3     1  UNL1        0.0000
@<TRIPOS>BOND
     1     7     8    1
     2     7     1    1
     3     7     9    1
     4    10     8    1
     5    10    11    1
     6    10    14    1
     7    10    15    1
     8    11     9    1
     9    11    12    1
    10    11    13    1
    11     2     3   ar
    12     3    18    1
    13     4     6   ar
    14     4    22    1
    15     5     1   ar
    16    23    22    1
    17    20    17    1
    18    20    21    1
    19    18    17   am
    20     1     2   ar
    21     3     4   ar
    22     5     6   ar
    23    17    16    2
    24    18    19    1
@<TRIPOS>MOLECULE
MolPort-047-592-445 211610127 MCULE-9931270561 PubChem-76850009 ZINC000211610127
 23 24 0 0 0
SMALL
GASTEIGER

@<TRIPOS>ATOM
      1 C          14.9175   41.0612    8.3037 C.ar    1  UNL1        0.0000
      2 C          13.6677   41.2140    7.7023 C.ar    1  UNL1        0.0000
      3 C          13.3824   42.3505    6.9430 C.ar    1  UNL1        0.0000
      4 C          14.3942   43.3140    6.7553 C.ar    1  UNL1        0.0000
      5 C          15.8809   42.0546    8.1258 C.ar    1  UNL1        0.0000
      6 N          15.6043   43.1437    7.3611 N.ar    1  UNL1        0.0000
      7 B          15.2330   39.7936    9.1676 B       1  UNL1        0.0000
      8 O          14.8596   38.4869    8.6526 O.3     1  UNL1        0.0000
      9 O          15.0997   39.8823   10.6121 O.3     1  UNL1        0.0000
     10 C          13.8660   38.0995    9.5646 C.3     1  UNL1        0.0000
     11 C          14.0183   39.0198   10.8462 C.3     1  UNL1        0.0000
     12 C          14.3219   38.2368   12.1204 C.3     1  UNL1        0.0000
     13 C          12.7788   39.8658   11.1458 C.3     1  UNL1        0.0000
     14 C          12.5035   38.2219    8.8791 C.3     1  UNL1        0.0000
     15 C          14.0670   36.6156    9.8587 C.3     1  UNL1        0.0000
     16 O          11.6366   40.1766    6.0637 O.2     1  UNL1        0.0000
     17 C          11.2161   41.3641    6.0408 C.2     1  UNL1        0.0000
     18 N          12.0915   42.4591    6.3297 N.am    1  UNL1        0.0000
     19 H          11.7813   43.3614    6.0870 H       1  UNL1        0.0000
     20 C           9.7981   41.6338    5.6827 C.3     1  UNL1        0.0000
     21 C           8.8959   41.2596    6.8415 C.3     1  UNL1        0.0000
     22 O          14.1735   44.4183    5.9287 O.3     1  UNL1        0.0000
     23 C          15.1885   45.3724    5.6550 C.3     1  UNL1        0.0000
@<TRIPOS>BOND
     1     7     8    1
     2     7     1    1
     3     7     9    1
     4    10     8    1
     5    10    11    1
     6    10    14    1
     7    10    15    1
     8    11     9    1
     9    11    12    1
    10    11    13    1
    11     2     3   ar
    12     3    18    1
    13     4     6   ar
    14     4    22    1
    15     5     1   ar
    16    23    22    1
    17    20    17    1
    18    20    21    1
    19    18    17   am
    20     1     2   ar
    21     3     4   ar
    22     5     6   ar
    23    17    16    2
    24    18    19    1
@<TRIPOS>MOLECULE
MolPort-047-592-445 211610127 MCULE-9931270561 PubChem-76850009 ZINC000211610127
 23 24 0 0 0
SMALL
GASTEIGER

@<TRIPOS>ATOM
      1 C          12.6196   41.1536    7.9001 C.ar    1  UNL1        0.0000
      2 C          13.8129   40.7901    8.5254 C.ar    1  UNL1        0.0000
      3 C          15.0105   41.4226    8.1859 C.ar    1  UNL1        0.0000
      4 C          14.9831   42.4659    7.2381 C.ar    1  UNL1        0.0000
      5 C          12.6390   42.1654    6.9396 C.ar    1  UNL1        0.0000
      6 N          13.8044   42.7955    6.6363 N.ar    1  UNL1        0.0000
      7 B          11.2785   40.4343    8.2699 B       1  UNL1        0.0000
      8 O          11.0105   39.1227    7.7043 O.3     1  UNL1        0.0000
      9 O          10.0743   41.2346    8.4167 O.3     1  UNL1        0.0000
     10 C           9.9147   39.3951    6.8712 C.3     1  UNL1        0.0000
     11 C           9.3056   40.7837    7.3331 C.3     1  UNL1        0.0000
     12 C           7.8585   40.6819    7.8067 C.3     1  UNL1        0.0000
     13 C           9.3273   41.8572    6.2428 C.3     1  UNL1        0.0000
     14 C          10.3956   39.3883    5.4186 C.3     1  UNL1        0.0000
     15 C           8.9365   38.2315    7.0053 C.3     1  UNL1        0.0000
     16 O          15.2508   39.6659   10.5103 O.2     1  UNL1        0.0000
     17 C          16.2887   40.0593    9.9143 C.2     1  UNL1        0.0000
     18 N          16.2100   41.0293    8.8647 N.am    1  UNL1        0.0000
     19 H          17.0492   41.4621    8.5859 H       1  UNL1        0.0000
     20 C          17.6161   39.5290   10.3245 C.3     1  UNL1        0.0000
     21 C          17.4907   38.0661   10.7003 C.3     1  UNL1        0.0000
     22 O          16.1460   43.1805    6.9406 O.3     1  UNL1        0.0000
     23 C          16.1138   44.5389    6.5291 C.3     1  UNL1        0.0000
@<TRIPOS>BOND
     1     7     8    1
     2     7     1    1
     3     7     9    1
     4    10     8    1
     5    10    11    1
     6    10    14    1
     7    10    15    1
     8    11     9    1
     9    11    12    1
    10    11    13    1
    11     2     3   ar
    12     3    18    1
    13     4     6   ar
    14     4    22    1
    15     5     1   ar
    16    23    22    1
    17    20    17    1
    18    20    21    1
    19    18    17   am
    20     1     2   ar
    21     3     4   ar
    22     5     6   ar
    23    17    16    2
    24    18    19    1
@<TRIPOS>MOLECULE
MolPort-047-592-445 211610127 MCULE-9931270561 PubChem-76850009 ZINC000211610127
 23 24 0 0 0
SMALL
GASTEIGER

@<TRIPOS>ATOM
      1 C          12.3088   40.5352    8.0228 C.ar    1  UNL1        0.0000
      2 C          13.6412   40.9311    7.9008 C.ar    1  UNL1        0.0000
      3 C          14.5582   40.6504    8.9156 C.ar    1  UNL1        0.0000
      4 C          14.1247   39.9186   10.0399 C.ar    1  UNL1        0.0000
      5 C          11.9091   39.8453    9.1679 C.ar    1  UNL1        0.0000
      6 N          12.8149   39.5510   10.1375 N.ar    1  UNL1        0.0000
      7 B          11.2766   40.8627    6.8914 B       1  UNL1        0.0000
      8 O          10.2602   41.8704    7.1438 O.3     1  UNL1        0.0000
      9 O          10.7910   39.7787    6.0540 O.3     1  UNL1        0.0000
     10 C           9.0897   41.0965    7.1342 C.3     1  UNL1        0.0000
     11 C           9.4397   39.7218    6.4268 C.3     1  UNL1        0.0000
     12 C           8.6241   39.4675    5.1623 C.3     1  UNL1        0.0000
     13 C           9.2349   38.4994    7.3243 C.3     1  UNL1        0.0000
     14 C           8.6003   40.9384    8.5753 C.3     1  UNL1        0.0000
     15 C           8.0167   41.8972    6.4017 C.3     1  UNL1        0.0000
     16 O          15.5540   42.9132    7.3552 O.2     1  UNL1        0.0000
     17 C          16.3481   42.2556    8.0793 C.2     1  UNL1        0.0000
     18 N          15.9204   41.0610    8.7417 N.am    1  UNL1        0.0000
     19 H          16.6196   40.4728    9.1082 H       1  UNL1        0.0000
     20 C          17.7559   42.7116    8.2265 C.3     1  UNL1        0.0000
     21 C          17.9513   44.0210    7.4889 C.3     1  UNL1        0.0000
     22 O          15.0341   39.5424   11.0313 O.3     1  UNL1        0.0000
     23 C          14.7676   38.4837   11.9389 C.3     1  UNL1        0.0000
@<TRIPOS>BOND
     1     7     8    1
     2     7     1    1
     3     7     9    1
     4    10     8    1
     5    10    11    1
     6    10    14    1
     7    10    15    1
     8    11     9    1
     9    11    12    1
    10    11    13    1
    11     2     3   ar
    12     3    18    1
    13     4     6   ar
    14     4    22    1
    15     5     1   ar
    16    23    22    1
    17    20    17    1
    18    20    21    1
    19    18    17   am
    20     1     2   ar
    21     3     4   ar
    22     5     6   ar
    23    17    16    2
    24    18    19    1
@<TRIPOS>MOLECULE
MolPort-047-592-445 211610127 MCULE-9931270561 PubChem-76850009 ZINC000211610127
 23 24 0 0 0
SMALL
GASTEIGER

@<TRIPOS>ATOM
      1 C          12.6241   40.2827   10.0640 C.ar    1  UNL1        0.0000
      2 C          13.1699   40.9818    8.9867 C.ar    1  UNL1        0.0000
      3 C          14.5499   40.9892    8.7746 C.ar    1  UNL1        0.0000
      4 C          15.3742   40.2391    9.6379 C.ar    1  UNL1        0.0000
      5 C          13.4761   39.5826   10.9188 C.ar    1  UNL1        0.0000
      6 N          14.8155   39.5716   10.6878 N.ar    1  UNL1        0.0000
      7 B          11.0776   40.2861   10.3108 B       1  UNL1        0.0000
      8 O          10.1917   39.9985    9.1952 O.3     1  UNL1        0.0000
      9 O          10.5191   41.2655   11.2279 O.3     1  UNL1        0.0000
     10 C           9.5433   41.2315    9.0269 C.3     1  UNL1        0.0000
     11 C           9.7647   42.0655   10.3566 C.3     1  UNL1        0.0000
     12 C           8.4639   42.4225   11.0702 C.3     1  UNL1        0.0000
     13 C          10.5116   43.3831   10.1382 C.3     1  UNL1        0.0000
     14 C          10.1064   41.9093    7.7760 C.3     1  UNL1        0.0000
     15 C           8.0743   40.9406    8.7334 C.3     1  UNL1        0.0000
     16 O          13.2900   43.2026    7.3391 O.2     1  UNL1        0.0000
     17 C          14.4739   42.8718    7.0628 C.2     1  UNL1        0.0000
     18 N          15.0664   41.7068    7.6465 N.am    1  UNL1        0.0000
     19 H          15.8973   41.3706    7.2393 H       1  UNL1        0.0000
     20 C          15.2574   43.6872    6.0970 C.3     1  UNL1        0.0000
     21 C          16.5635   44.1207    6.7322 C.3     1  UNL1        0.0000
     22 O          16.7484   40.1509    9.4026 O.3     1  UNL1        0.0000
     23 C          17.6277   39.4883   10.2989 C.3     1  UNL1        0.0000
@<TRIPOS>BOND
     1     7     8    1
     2     7     1    1
     3     7     9    1
     4    10     8    1
     5    10    11    1
     6    10    14    1
     7    10    15    1
     8    11     9    1
     9    11    12    1
    10    11    13    1
    11     2     3   ar
    12     3    18    1
    13     4     6   ar
    14     4    22    1
    15     5     1   ar
    16    23    22    1
    17    20    17    1
    18    20    21    1
    19    18    17   am
    20     1     2   ar
    21     3     4   ar
    22     5     6   ar
    23    17    16    2
    24    18    19    1
@<TRIPOS>MOLECULE
MolPort-047-592-445 211610127 MCULE-9931270561 PubChem-76850009 ZINC000211610127
 23 24 0 0 0
SMALL
GASTEIGER

@<TRIPOS>ATOM
      1 C          12.9037   41.2559    7.2769 C.ar    1  UNL1        0.0000
      2 C          13.4281   40.5126    8.3350 C.ar    1  UNL1        0.0000
      3 C          14.7398   40.7223    8.7650 C.ar    1  UNL1        0.0000
      4 C          15.5055   41.7301    8.1442 C.ar    1  UNL1        0.0000
      5 C          13.7052   42.2189    6.6628 C.ar    1  UNL1        0.0000
      6 N          14.9712   42.4363    7.1070 N.ar    1  UNL1        0.0000
      7 B          11.4373   41.0108    6.7846 B       1  UNL1        0.0000
      8 O          10.3659   41.8083    7.3575 O.3     1  UNL1        0.0000
      9 O          11.0203   39.6519    6.4822 O.3     1  UNL1        0.0000
     10 C           9.6353   40.8354    8.0567 C.3     1  UNL1        0.0000
     11 C          10.0702   39.4210    7.4884 C.3     1  UNL1        0.0000
     12 C           8.9180   38.6404    6.8625 C.3     1  UNL1        0.0000
     13 C          10.6920   38.5007    8.5411 C.3     1  UNL1        0.0000
     14 C           9.9073   41.0061    9.5527 C.3     1  UNL1        0.0000
     15 C           8.1539   41.1395    7.8520 C.3     1  UNL1        0.0000
     16 O          13.2936   39.9341   11.1804 O.2     1  UNL1        0.0000
     17 C          14.4458   39.4728   10.9633 C.2     1  UNL1        0.0000
     18 N          15.2325   39.9480    9.8659 N.am    1  UNL1        0.0000
     19 H          16.1913   39.7245    9.8675 H       1  UNL1        0.0000
     20 C          15.0068   38.4403   11.8747 C.3     1  UNL1        0.0000
     21 C          14.3224   37.1108   11.6275 C.3     1  UNL1        0.0000
     22 O          16.7892   42.0282    8.6077 O.3     1  UNL1        0.0000
     23 C          17.3007   43.3525    8.6170 C.3     1  UNL1        0.0000
@<TRIPOS>BOND
     1     7     8    1
     2     7     1    1
     3     7     9    1
     4    10     8    1
     5    10    11    1
     6    10    14    1
     7    10    15    1
     8    11     9    1
     9    11    12    1
    10    11    13    1
    11     2     3   ar
    12     3    18    1
    13     4     6   ar
    14     4    22    1
    15     5     1   ar
    16    23    22    1
    17    20    17    1
    18    20    21    1
    19    18    17   am
    20     1     2   ar
    21     3     4   ar
    22     5     6   ar
    23    17    16    2
    24    18    19    1
@<TRIPOS>MOLECULE
MolPort-047-592-445 211610127 MCULE-9931270561 PubChem-76850009 ZINC000211610127
 23 24 0 0 0
SMALL
GASTEIGER

@<TRIPOS>ATOM
      1 C          11.9431   39.7557    8.6380 C.ar    1  UNL1        0.0000
      2 C          12.4813   40.9019    8.0517 C.ar    1  UNL1        0.0000
      3 C          12.0601   41.3131    6.7856 C.ar    1  UNL1        0.0000
      4 C          11.0485   40.5785    6.1342 C.ar    1  UNL1        0.0000
      5 C          10.9705   39.0336    7.9457 C.ar    1  UNL1        0.0000
      6 N          10.5456   39.4575    6.7263 N.ar    1  UNL1        0.0000
      7 B          12.4259   39.2859   10.0518 B       1  UNL1        0.0000
      8 O          13.6030   39.9111   10.6311 O.3     1  UNL1        0.0000
      9 O          12.3170   37.8778   10.3945 O.3     1  UNL1        0.0000
     10 C          14.5095   38.8401   10.6485 C.3     1  UNL1        0.0000
     11 C          13.6671   37.5073   10.4853 C.3     1  UNL1        0.0000
     12 C          13.8042   36.5562   11.6708 C.3     1  UNL1        0.0000
     13 C          14.0332   36.6978    9.2393 C.3     1  UNL1        0.0000
     14 C          15.5381   39.0564    9.5365 C.3     1  UNL1        0.0000
     15 C          15.2785   38.9117   11.9647 C.3     1  UNL1        0.0000
     16 O          14.8293   42.2301    6.9781 O.2     1  UNL1        0.0000
     17 C          14.0183   42.8431    6.2339 C.2     1  UNL1        0.0000
     18 N          12.6274   42.5054    6.2280 N.am    1  UNL1        0.0000
     19 H          12.0092   43.1449    5.8060 H       1  UNL1        0.0000
     20 C          14.5077   43.9500    5.3697 C.3     1  UNL1        0.0000
     21 C          15.5711   44.7424    6.1036 C.3     1  UNL1        0.0000
     22 O          10.5396   41.0116    4.9074 O.3     1  UNL1        0.0000
     23 C          10.4580   40.1551    3.7782 C.3     1  UNL1        0.0000
@<TRIPOS>BOND
     1     7     8    1
     2     7     1    1
     3     7     9    1
     4    10     8    1
     5    10    11    1
     6    10    14    1
     7    10    15    1
     8    11     9    1
     9    11    12    1
    10    11    13    1
    11     2     3   ar
    12     3    18    1
    13     4     6   ar
    14     4    22    1
    15     5     1   ar
    16    23    22    1
    17    20    17    1
    18    20    21    1
    19    18    17   am
    20     1     2   ar
    21     3     4   ar
    22     5     6   ar
    23    17    16    2
    24    18    19    1
@<TRIPOS>MOLECULE
MolPort-047-592-445 211610127 MCULE-9931270561 PubChem-76850009 ZINC000211610127
 23 24 0 0 0
SMALL
GASTEIGER

@<TRIPOS>ATOM
      1 C           6.9727   41.7701    7.1042 C.ar    1  UNL1        0.0000
      2 C           6.2885   41.7764    8.3203 C.ar    1  UNL1        0.0000
      3 C           5.5640   42.9016    8.7184 C.ar    1  UNL1        0.0000
      4 C           5.4967   44.0091    7.8487 C.ar    1  UNL1        0.0000
      5 C           6.9130   42.8997    6.2875 C.ar    1  UNL1        0.0000
      6 N           6.1816   43.9796    6.6697 N.ar    1  UNL1        0.0000
      7 B           7.7976   40.5136    6.6641 B       1  UNL1        0.0000
      8 O           8.3319   39.6344    7.6906 O.3     1  UNL1        0.0000
      9 O           8.6764   40.6239    5.5119 O.3     1  UNL1        0.0000
     10 C           9.7129   39.8275    7.5341 C.3     1  UNL1        0.0000
     11 C           9.9383   40.4836    6.1088 C.3     1  UNL1        0.0000
     12 C          10.7948   39.6295    5.1784 C.3     1  UNL1        0.0000
     13 C          10.6045   41.8601    6.1646 C.3     1  UNL1        0.0000
     14 C          10.2171   40.6893    8.6935 C.3     1  UNL1        0.0000
     15 C          10.3862   38.4664    7.6861 C.3     1  UNL1        0.0000
     16 O           2.7544   42.2282    9.1650 O.2     1  UNL1        0.0000
     17 C           3.5221   42.3917   10.1505 C.2     1  UNL1        0.0000
     18 N           4.8627   42.8590    9.9677 N.am    1  UNL1        0.0000
     19 H           5.3428   43.1774   10.7661 H       1  UNL1        0.0000
     20 C           3.0208   42.1215   11.5242 C.3     1  UNL1        0.0000
     21 C           3.6189   40.8296   12.0441 C.3     1  UNL1        0.0000
     22 O           4.7084   45.1157    8.1739 O.3     1  UNL1        0.0000
     23 C           3.4002   45.2915    7.6512 C.3     1  UNL1        0.0000
@<TRIPOS>BOND
     1     7     8    1
     2     7     1    1
     3     7     9    1
     4    10     8    1
     5    10    11    1
     6    10    14    1
     7    10    15    1
     8    11     9    1
     9    11    12    1
    10    11    13    1
    11     2     3   ar
    12     3    18    1
    13     4     6   ar
    14     4    22    1
    15     5     1   ar
    16    23    22    1
    17    20    17    1
    18    20    21    1
    19    18    17   am
    20     1     2   ar
    21     3     4   ar
    22     5     6   ar
    23    17    16    2
    24    18    19    1
@<TRIPOS>MOLECULE
MolPort-047-592-445 211610127 MCULE-9931270561 PubChem-76850009 ZINC000211610127
 23 24 0 0 0
SMALL
GASTEIGER

@<TRIPOS>ATOM
      1 C           9.5355   41.5766   10.8947 C.ar    1  UNL1        0.0000
      2 C           8.6733   42.0539    9.9069 C.ar    1  UNL1        0.0000
      3 C           7.2936   42.0715   10.1205 C.ar    1  UNL1        0.0000
      4 C           6.7936   41.6453   11.3678 C.ar    1  UNL1        0.0000
      5 C           8.9998   41.1281   12.1024 C.ar    1  UNL1        0.0000
      6 N           7.6579   41.1759   12.3127 N.ar    1  UNL1        0.0000
      7 B          11.0820   41.5430   10.6499 B       1  UNL1        0.0000
      8 O          11.5950   41.9824    9.3631 O.3     1  UNL1        0.0000
      9 O          11.8546   40.4488   11.2138 O.3     1  UNL1        0.0000
     10 C          12.1111   40.7855    8.8434 C.3     1  UNL1        0.0000
     11 C          12.2738   39.7771   10.0556 C.3     1  UNL1        0.0000
     12 C          13.7151   39.3289   10.2802 C.3     1  UNL1        0.0000
     13 C          11.4438   38.5000    9.9080 C.3     1  UNL1        0.0000
     14 C          11.1658   40.2836    7.7499 C.3     1  UNL1        0.0000
     15 C          13.4304   41.1171    8.1518 C.3     1  UNL1        0.0000
     16 O           7.2172   44.7970    9.0659 O.2     1  UNL1        0.0000
     17 C           6.5395   43.8924    8.5094 C.2     1  UNL1        0.0000
     18 N           6.4460   42.5852    9.0852 N.am    1  UNL1        0.0000
     19 H           5.7412   41.9899    8.7417 H       1  UNL1        0.0000
     20 C           5.8051   44.1939    7.2519 C.3     1  UNL1        0.0000
     21 C           4.4595   44.8102    7.5784 C.3     1  UNL1        0.0000
     22 O           5.4281   41.7334   11.6488 O.3     1  UNL1        0.0000
     23 C           4.5318   40.6642   11.3860 C.3     1  UNL1        0.0000
@<TRIPOS>BOND
     1     7     8    1
     2     7     1    1
     3     7     9    1
     4    10     8    1
     5    10    11    1
     6    10    14    1
     7    10    15    1
     8    11     9    1
     9    11    12    1
    10    11    13    1
    11     2     3   ar
    12     3    18    1
    13     4     6   ar
    14     4    22    1
    15     5     1   ar
    16    23    22    1
    17    20    17    1
    18    20    21    1
    19    18    17   am
    20     1     2   ar
    21     3     4   ar
    22     5     6   ar
    23    17    16    2
    24    18    19    1
