@<TRIPOS>MOLECULE
MolPort-000-056-042 1324325 MCULE-1065918161 PubChem-1428015 ZINC000001324325 ZINC01324325
 28 29 0 0 0
SMALL
GASTEIGER

@<TRIPOS>ATOM
      1 C          12.1630   40.9794    7.4310 C.ar    1  UNL1        0.1535
      2 C          12.3453   39.7161    8.0134 C.ar    1  UNL1        0.0559
      3 C          13.5570   39.3620    8.6112 C.ar    1  UNL1        0.0879
      4 C          14.6307   40.2748    8.5986 C.ar    1  UNL1        0.1535
      5 C          14.4481   41.5387    8.0169 C.ar    1  UNL1        0.0559
      6 C          13.2358   41.8935    7.4212 C.ar    1  UNL1        0.0881
      7 C          12.5882   37.2480    9.6456 C.2     1  UNL1        0.2257
      8 O          11.3985   37.5340    9.3368 O.2     1  UNL1       -0.2748
      9 N          13.6763   38.0496    9.1749 N.am    1  UNL1       -0.2815
     10 H          14.5813   37.6681    9.2440 H       1  UNL1        0.1549
     11 C          12.8826   36.0287   10.4550 C.3     1  UNL1        0.0768
     12 C          13.5692   34.9777    9.6041 C.3     1  UNL1        0.0096
     13 C          11.6073   35.4613   11.0484 C.3     1  UNL1        0.0096
     14 C          14.1484   43.9382    6.1785 C.2     1  UNL1        0.2496
     15 O          13.8176   44.7311    5.2570 O.2     1  UNL1       -0.2698
     16 N          13.1166   43.2060    6.8549 N.am    1  UNL1       -0.2779
     17 H          12.2407   43.6477    6.9385 H       1  UNL1        0.1553
     18 C          15.5721   43.8358    6.5693 C.ar    1  UNL1        0.0559
     19 C          15.9319   43.8922    7.9241 C.ar    1  UNL1        0.0342
     20 C          17.2721   43.7835    8.3065 C.ar    1  UNL1        0.1403
     21 C          18.2634   43.6103    7.3374 C.ar    1  UNL1        0.0296
     22 C          17.9145   43.5425    5.9863 C.ar    1  UNL1        0.0025
     23 C          16.5744   43.6512    5.6049 C.ar    1  UNL1        0.0047
     24 F          17.6092   43.8448    9.6168 F       1  UNL1       -0.2042
     25 C           9.8843   40.4073    6.6428 C.3     1  UNL1        0.2525
     26 O          10.9257   41.3429    6.8868 O.3     1  UNL1       -0.4701
     27 C          16.0698   39.6297   10.5100 C.3     1  UNL1        0.2525
     28 O          15.8721   39.9069    9.1302 O.3     1  UNL1       -0.4701
@<TRIPOS>BOND
     1    25    26    1
     2     1    26    1
     3     2     3   ar
     4     3     9    1
     5    11     7    1
     6    11    12    1
     7    11    13    1
     8     4    28    1
     9     4     5   ar
    10    27    28    1
    11     6    16    1
    12     6     1   ar
    13    14    18    1
    14    19    20   ar
    15    20    24    1
    16    21    22   ar
    17    23    18   ar
    18     9     7   am
    19    16    14   am
    20     1     2   ar
    21     3     4   ar
    22     7     8    2
    23     5     6   ar
    24    14    15    2
    25    18    19   ar
    26    20    21   ar
    27    22    23   ar
    28     9    10    1
    29    16    17    1
@<TRIPOS>MOLECULE
MolPort-000-056-042 1324325 MCULE-1065918161 PubChem-1428015 ZINC000001324325 ZINC01324325
 28 29 0 0 0
SMALL
GASTEIGER

@<TRIPOS>ATOM
      1 C          11.9284   40.7298    6.5986 C.ar    1  UNL1        0.1535
      2 C          11.6715   39.5033    7.2297 C.ar    1  UNL1        0.0559
      3 C          11.6621   39.3930    8.6221 C.ar    1  UNL1        0.0879
      4 C          11.9517   40.5246    9.4105 C.ar    1  UNL1        0.1535
      5 C          12.2077   41.7515    8.7795 C.ar    1  UNL1        0.0559
      6 C          12.2149   41.8622    7.3873 C.ar    1  UNL1        0.0881
      7 C          12.4042   37.1806    9.6380 C.2     1  UNL1        0.2257
      8 O          13.5972   37.5553    9.8076 O.2     1  UNL1       -0.2748
      9 N          11.4050   38.1058    9.1980 N.am    1  UNL1       -0.2815
     10 H          10.4636   37.8360    9.2991 H       1  UNL1        0.1549
     11 C          12.0039   35.7783    9.9572 C.3     1  UNL1        0.0768
     12 C          11.2521   35.7256   11.2732 C.3     1  UNL1        0.0096
     13 C          13.2221   34.8770   10.0212 C.3     1  UNL1        0.0096
     14 C          13.7415   43.6333    6.3429 C.2     1  UNL1        0.2496
     15 O          13.7573   44.4414    5.3765 O.2     1  UNL1       -0.2698
     16 N          12.4743   43.1497    6.8104 N.am    1  UNL1       -0.2779
     17 H          11.7075   43.7614    6.7270 H       1  UNL1        0.1553
     18 C          15.0161   43.2611    6.9964 C.ar    1  UNL1        0.0559
     19 C          16.1318   44.1045    6.8861 C.ar    1  UNL1        0.0342
     20 C          17.3373   43.7702    7.5097 C.ar    1  UNL1        0.1403
     21 C          17.4352   42.5927    8.2553 C.ar    1  UNL1        0.0296
     22 C          16.3271   41.7511    8.3798 C.ar    1  UNL1        0.0025
     23 C          15.1222   42.0862    7.7560 C.ar    1  UNL1        0.0047
     24 F          18.4099   44.5887    7.3923 F       1  UNL1       -0.2042
     25 C          10.8664   40.2254    4.4172 C.3     1  UNL1        0.2525
     26 O          11.8777   40.8396    5.2042 O.3     1  UNL1       -0.4701
     27 C          10.9246   40.7330   11.6561 C.3     1  UNL1        0.2525
     28 O          12.0160   40.4123   10.8042 O.3     1  UNL1       -0.4701
@<TRIPOS>BOND
     1    25    26    1
     2     1    26    1
     3     2     3   ar
     4     3     9    1
     5    11     7    1
     6    11    12    1
     7    11    13    1
     8     4    28    1
     9     4     5   ar
    10    27    28    1
    11     6    16    1
    12     6     1   ar
    13    14    18    1
    14    19    20   ar
    15    20    24    1
    16    21    22   ar
    17    23    18   ar
    18     9     7   am
    19    16    14   am
    20     1     2   ar
    21     3     4   ar
    22     7     8    2
    23     5     6   ar
    24    14    15    2
    25    18    19   ar
    26    20    21   ar
    27    22    23   ar
    28     9    10    1
    29    16    17    1
@<TRIPOS>MOLECULE
MolPort-000-056-042 1324325 MCULE-1065918161 PubChem-1428015 ZINC000001324325 ZINC01324325
 28 29 0 0 0
SMALL
GASTEIGER

@<TRIPOS>ATOM
      1 C          13.0368   40.1408   10.4052 C.ar    1  UNL1        0.1535
      2 C          11.7067   40.5848   10.3592 C.ar    1  UNL1        0.0559
      3 C          11.1055   40.9479    9.1518 C.ar    1  UNL1        0.0879
      4 C          11.8573   40.9036    7.9606 C.ar    1  UNL1        0.1535
      5 C          13.1873   40.4586    8.0064 C.ar    1  UNL1        0.0559
      6 C          13.7876   40.0934    9.2133 C.ar    1  UNL1        0.0881
      7 C           8.6621   40.8258    8.4502 C.2     1  UNL1        0.2257
      8 O           8.7744   39.6804    7.9326 O.2     1  UNL1       -0.2748
      9 N           9.7472   41.4047    9.1818 N.am    1  UNL1       -0.2815
     10 H           9.5441   42.1806    9.7527 H       1  UNL1        0.1549
     11 C           7.3697   41.5676    8.3613 C.3     1  UNL1        0.0768
     12 C           6.7086   41.6506    9.7237 C.3     1  UNL1        0.0096
     13 C           6.4354   40.8957    7.3734 C.3     1  UNL1        0.0096
     14 C          16.3207   40.4633    9.1454 C.2     1  UNL1        0.2496
     15 O          17.3700   40.0432    9.7020 O.2     1  UNL1       -0.2698
     16 N          15.1476   39.6383    9.1842 N.am    1  UNL1       -0.2779
     17 H          15.2900   38.6642    9.1917 H       1  UNL1        0.1553
     18 C          16.3512   41.7553    8.4242 C.ar    1  UNL1        0.0559
     19 C          17.4979   42.5617    8.4806 C.ar    1  UNL1        0.0342
     20 C          17.5435   43.7779    7.7931 C.ar    1  UNL1        0.1403
     21 C          16.4450   44.1948    7.0371 C.ar    1  UNL1        0.0296
     22 C          15.3022   43.3943    6.9661 C.ar    1  UNL1        0.0025
     23 C          15.2575   42.1785    7.6538 C.ar    1  UNL1        0.0047
     24 F          18.6533   44.5513    7.8587 F       1  UNL1       -0.2042
     25 C          14.0478   38.3927   11.8414 C.3     1  UNL1        0.2525
     26 O          13.6093   39.7249   11.6128 O.3     1  UNL1       -0.4701
     27 C          11.3781   40.5835    5.5504 C.3     1  UNL1        0.2525
     28 O          11.2897   41.3323    6.7551 O.3     1  UNL1       -0.4701
@<TRIPOS>BOND
     1    25    26    1
     2     1    26    1
     3     2     3   ar
     4     3     9    1
     5    11     7    1
     6    11    12    1
     7    11    13    1
     8     4    28    1
     9     4     5   ar
    10    27    28    1
    11     6    16    1
    12     6     1   ar
    13    14    18    1
    14    19    20   ar
    15    20    24    1
    16    21    22   ar
    17    23    18   ar
    18     9     7   am
    19    16    14   am
    20     1     2   ar
    21     3     4   ar
    22     7     8    2
    23     5     6   ar
    24    14    15    2
    25    18    19   ar
    26    20    21   ar
    27    22    23   ar
    28     9    10    1
    29    16    17    1
@<TRIPOS>MOLECULE
MolPort-000-056-042 1324325 MCULE-1065918161 PubChem-1428015 ZINC000001324325 ZINC01324325
 28 29 0 0 0
SMALL
GASTEIGER

@<TRIPOS>ATOM
      1 C          13.4049   42.2680    7.2000 C.ar    1  UNL1        0.1535
      2 C          14.3614   41.5471    7.9308 C.ar    1  UNL1        0.0559
      3 C          14.1075   40.2459    8.3704 C.ar    1  UNL1        0.0879
      4 C          12.8546   39.6562    8.1083 C.ar    1  UNL1        0.1535
      5 C          11.8983   40.3767    7.3766 C.ar    1  UNL1        0.0559
      6 C          12.1531   41.6769    6.9352 C.ar    1  UNL1        0.0881
      7 C          15.1596   39.4556   10.5489 C.2     1  UNL1        0.2257
      8 O          14.1316   39.6998   11.2389 O.2     1  UNL1       -0.2748
      9 N          15.1257   39.5743    9.1232 N.am    1  UNL1       -0.2815
     10 H          15.8625   39.1606    8.6179 H       1  UNL1        0.1549
     11 C          16.4104   38.9755   11.2073 C.3     1  UNL1        0.0768
     12 C          17.6315   39.4812   10.4635 C.3     1  UNL1        0.0096
     13 C          16.4334   37.4602   11.2690 C.3     1  UNL1        0.0096
     14 C           9.8726   41.8003    5.7766 C.2     1  UNL1        0.2496
     15 O           8.8823   42.5731    5.6809 O.2     1  UNL1       -0.2698
     16 N          11.1336   42.3503    6.1837 N.am    1  UNL1       -0.2779
     17 H          11.3172   43.2814    5.9216 H       1  UNL1        0.1553
     18 C           9.7169   40.3750    5.4100 C.ar    1  UNL1        0.0559
     19 C          10.2394   39.9030    4.1965 C.ar    1  UNL1        0.0342
     20 C          10.1100   38.5563    3.8452 C.ar    1  UNL1        0.1403
     21 C           9.4629   37.6681    4.7081 C.ar    1  UNL1        0.0296
     22 C           8.9480   38.1260    5.9234 C.ar    1  UNL1        0.0025
     23 C           9.0779   39.4726    6.2739 C.ar    1  UNL1        0.0047
     24 F          10.6133   38.1123    2.6689 F       1  UNL1       -0.2042
     25 C          15.0023   43.9572    6.3425 C.3     1  UNL1        0.2525
     26 O          13.6933   43.5491    6.7156 O.3     1  UNL1       -0.4701
     27 C          11.3913   38.0966    9.3603 C.3     1  UNL1        0.2525
     28 O          12.5607   38.3807    8.6043 O.3     1  UNL1       -0.4701
@<TRIPOS>BOND
     1    25    26    1
     2     1    26    1
     3     2     3   ar
     4     3     9    1
     5    11     7    1
     6    11    12    1
     7    11    13    1
     8     4    28    1
     9     4     5   ar
    10    27    28    1
    11     6    16    1
    12     6     1   ar
    13    14    18    1
    14    19    20   ar
    15    20    24    1
    16    21    22   ar
    17    23    18   ar
    18     9     7   am
    19    16    14   am
    20     1     2   ar
    21     3     4   ar
    22     7     8    2
    23     5     6   ar
    24    14    15    2
    25    18    19   ar
    26    20    21   ar
    27    22    23   ar
    28     9    10    1
    29    16    17    1
@<TRIPOS>MOLECULE
MolPort-000-056-042 1324325 MCULE-1065918161 PubChem-1428015 ZINC000001324325 ZINC01324325
 28 29 0 0 0
SMALL
GASTEIGER

@<TRIPOS>ATOM
      1 C          12.7977   40.2481    8.7769 C.ar    1  UNL1        0.1535
      2 C          14.0207   40.9154    8.6109 C.ar    1  UNL1        0.0559
      3 C          14.2138   41.8253    7.5689 C.ar    1  UNL1        0.0879
      4 C          13.1753   42.0526    6.6437 C.ar    1  UNL1        0.1535
      5 C          11.9518   41.3860    6.8103 C.ar    1  UNL1        0.0559
      6 C          11.7580   40.4779    7.8535 C.ar    1  UNL1        0.0881
      7 C          16.6678   42.0984    8.1860 C.2     1  UNL1        0.2257
      8 O          16.7305   40.9951    8.7954 O.2     1  UNL1       -0.2748
      9 N          15.4936   42.4603    7.4525 N.am    1  UNL1       -0.2815
     10 H          15.5711   43.2070    6.8155 H       1  UNL1        0.1549
     11 C          17.8457   43.0154    8.1681 C.3     1  UNL1        0.0768
     12 C          17.6473   44.1560    9.1478 C.3     1  UNL1        0.0096
     13 C          18.0726   43.5656    6.7731 C.3     1  UNL1        0.0096
     14 C           9.2081   40.4966    8.0893 C.2     1  UNL1        0.2496
     15 O           8.1922   39.9343    7.6003 O.2     1  UNL1       -0.2698
     16 N          10.4783   39.8404    7.9692 N.am    1  UNL1       -0.2779
     17 H          10.4708   38.8559    7.9658 H       1  UNL1        0.1553
     18 C           9.0479   41.7747    8.8179 C.ar    1  UNL1        0.0559
     19 C           8.2041   42.7716    8.3055 C.ar    1  UNL1        0.0342
     20 C           8.0346   43.9779    8.9912 C.ar    1  UNL1        0.1403
     21 C           8.7022   44.1947   10.1993 C.ar    1  UNL1        0.0296
     22 C           9.5368   43.2043   10.7231 C.ar    1  UNL1        0.0025
     23 C           9.7057   41.9986   10.0369 C.ar    1  UNL1        0.0047
     24 F           7.2219   44.9358    8.4851 F       1  UNL1       -0.2042
     25 C          12.9913   39.7019   11.1863 C.3     1  UNL1        0.2525
     26 O          12.5978   39.3827    9.8586 O.3     1  UNL1       -0.4701
     27 C          13.9898   44.1846    5.6784 C.3     1  UNL1        0.2525
     28 O          13.3793   42.9072    5.5542 O.3     1  UNL1       -0.4701
@<TRIPOS>BOND
     1    25    26    1
     2     1    26    1
     3     2     3   ar
     4     3     9    1
     5    11     7    1
     6    11    12    1
     7    11    13    1
     8     4    28    1
     9     4     5   ar
    10    27    28    1
    11     6    16    1
    12     6     1   ar
    13    14    18    1
    14    19    20   ar
    15    20    24    1
    16    21    22   ar
    17    23    18   ar
    18     9     7   am
    19    16    14   am
    20     1     2   ar
    21     3     4   ar
    22     7     8    2
    23     5     6   ar
    24    14    15    2
    25    18    19   ar
    26    20    21   ar
    27    22    23   ar
    28     9    10    1
    29    16    17    1
@<TRIPOS>MOLECULE
MolPort-000-056-042 1324325 MCULE-1065918161 PubChem-1428015 ZINC000001324325 ZINC01324325
 28 29 0 0 0
SMALL
GASTEIGER

@<TRIPOS>ATOM
      1 C          13.0019   38.8185    9.2644 C.ar    1  UNL1        0.1535
      2 C          14.1357   39.6404    9.3520 C.ar    1  UNL1        0.0559
      3 C          14.2684   40.7790    8.5540 C.ar    1  UNL1        0.0879
      4 C          13.2637   41.0911    7.6163 C.ar    1  UNL1        0.1535
      5 C          12.1293   40.2697    7.5293 C.ar    1  UNL1        0.0559
      6 C          11.9956   39.1325    8.3289 C.ar    1  UNL1        0.0881
      7 C          16.0710   42.3270    7.6420 C.2     1  UNL1        0.2257
      8 O          15.4380   42.5871    6.5817 O.2     1  UNL1       -0.2748
      9 N          15.4597   41.5648    8.6875 N.am    1  UNL1       -0.2815
     10 H          15.8931   41.5816    9.5714 H       1  UNL1        0.1549
     11 C          17.4473   42.8674    7.8477 C.3     1  UNL1        0.0768
     12 C          17.4914   43.7590    9.0738 C.3     1  UNL1        0.0096
     13 C          17.9040   43.6436    6.6274 C.3     1  UNL1        0.0096
     14 C           9.5444   38.7888    7.6719 C.2     1  UNL1        0.2496
     15 O           8.8182   37.9573    7.0649 O.2     1  UNL1       -0.2698
     16 N          10.8046   38.3444    8.1941 N.am    1  UNL1       -0.2779
     17 H          10.8572   37.4065    8.4887 H       1  UNL1        0.1553
     18 C           9.0496   40.1684    7.8769 C.ar    1  UNL1        0.0559
     19 C           8.5977   40.9200    6.7818 C.ar    1  UNL1        0.0342
     20 C           8.1160   42.2194    6.9646 C.ar    1  UNL1        0.1403
     21 C           8.0752   42.7759    8.2455 C.ar    1  UNL1        0.0296
     22 C           8.5133   42.0320    9.3439 C.ar    1  UNL1        0.0025
     23 C           8.9948   40.7329    9.1603 C.ar    1  UNL1        0.0047
     24 F           7.6873   42.9384    5.8999 F       1  UNL1       -0.2042
     25 C          13.9505   37.0910   10.7666 C.3     1  UNL1        0.2525
     26 O          12.8544   37.7132   10.1103 O.3     1  UNL1       -0.4701
     27 C          12.3603   42.6940    5.9563 C.3     1  UNL1        0.2525
     28 O          13.4171   42.1882    6.7609 O.3     1  UNL1       -0.4701
@<TRIPOS>BOND
     1    25    26    1
     2     1    26    1
     3     2     3   ar
     4     3     9    1
     5    11     7    1
     6    11    12    1
     7    11    13    1
     8     4    28    1
     9     4     5   ar
    10    27    28    1
    11     6    16    1
    12     6     1   ar
    13    14    18    1
    14    19    20   ar
    15    20    24    1
    16    21    22   ar
    17    23    18   ar
    18     9     7   am
    19    16    14   am
    20     1     2   ar
    21     3     4   ar
    22     7     8    2
    23     5     6   ar
    24    14    15    2
    25    18    19   ar
    26    20    21   ar
    27    22    23   ar
    28     9    10    1
    29    16    17    1
@<TRIPOS>MOLECULE
MolPort-000-056-042 1324325 MCULE-1065918161 PubChem-1428015 ZINC000001324325 ZINC01324325
 28 29 0 0 0
SMALL
GASTEIGER

@<TRIPOS>ATOM
      1 C          10.5812   43.2858   10.0835 C.ar    1  UNL1        0.1535
      2 C          11.3975   43.3953    8.9476 C.ar    1  UNL1        0.0559
      3 C          12.1527   42.3126    8.4912 C.ar    1  UNL1        0.0879
      4 C          12.1251   41.0969    9.2034 C.ar    1  UNL1        0.1535
      5 C          11.3079   40.9869   10.3388 C.ar    1  UNL1        0.0559
      6 C          10.5510   42.0688   10.7939 C.ar    1  UNL1        0.0881
      7 C          14.3977   42.6489    7.3402 C.2     1  UNL1        0.2257
      8 O          15.0699   42.3420    8.3632 O.2     1  UNL1       -0.2748
      9 N          12.9744   42.5006    7.3318 N.am    1  UNL1       -0.2815
     10 H          12.5223   42.5301    6.4577 H       1  UNL1        0.1549
     11 C          15.0862   43.1112    6.0989 C.3     1  UNL1        0.0768
     12 C          16.4787   43.6191    6.4201 C.3     1  UNL1        0.0096
     13 C          14.2824   44.2020    5.4174 C.3     1  UNL1        0.0096
     14 C           8.4255   41.2865   11.9890 C.2     1  UNL1        0.2496
     15 O           8.0798   40.6538   13.0221 O.2     1  UNL1       -0.2698
     16 N           9.7304   41.8820   11.9555 N.am    1  UNL1       -0.2779
     17 H          10.0987   42.1929   12.8139 H       1  UNL1        0.1553
     18 C           7.4593   41.4443   10.8792 C.ar    1  UNL1        0.0559
     19 C           7.8803   41.2630    9.5533 C.ar    1  UNL1        0.0342
     20 C           6.9741   41.3966    8.4974 C.ar    1  UNL1        0.1403
     21 C           5.6369   41.7056    8.7591 C.ar    1  UNL1        0.0296
     22 C           5.2053   41.8780   10.0766 C.ar    1  UNL1        0.0025
     23 C           6.1120   41.7443   11.1316 C.ar    1  UNL1        0.0047
     24 F           7.3922   41.2249    7.2207 F       1  UNL1       -0.2042
     25 C           8.6434   44.7988    9.7731 C.3     1  UNL1        0.2525
     26 O           9.7850   44.3601   10.4968 O.3     1  UNL1       -0.4701
     27 C          12.4012   38.7910    8.3388 C.3     1  UNL1        0.2525
     28 O          12.9314   40.0268    8.7986 O.3     1  UNL1       -0.4701
@<TRIPOS>BOND
     1    25    26    1
     2     1    26    1
     3     2     3   ar
     4     3     9    1
     5    11     7    1
     6    11    12    1
     7    11    13    1
     8     4    28    1
     9     4     5   ar
    10    27    28    1
    11     6    16    1
    12     6     1   ar
    13    14    18    1
    14    19    20   ar
    15    20    24    1
    16    21    22   ar
    17    23    18   ar
    18     9     7   am
    19    16    14   am
    20     1     2   ar
    21     3     4   ar
    22     7     8    2
    23     5     6   ar
    24    14    15    2
    25    18    19   ar
    26    20    21   ar
    27    22    23   ar
    28     9    10    1
    29    16    17    1
@<TRIPOS>MOLECULE
MolPort-000-056-042 1324325 MCULE-1065918161 PubChem-1428015 ZINC000001324325 ZINC01324325
 28 29 0 0 0
SMALL
GASTEIGER

@<TRIPOS>ATOM
      1 C          11.9280   39.2063    9.4114 C.ar    1  UNL1        0.1535
      2 C          10.5672   39.5024    9.5817 C.ar    1  UNL1        0.0559
      3 C          10.1107   40.8222    9.6070 C.ar    1  UNL1        0.0879
      4 C          11.0359   41.8795    9.4965 C.ar    1  UNL1        0.1535
      5 C          12.3968   41.5834    9.3252 C.ar    1  UNL1        0.0559
      6 C          12.8529   40.2637    9.2976 C.ar    1  UNL1        0.0881
      7 C           7.7916   41.4692    8.7820 C.2     1  UNL1        0.2257
      8 O           8.1071   41.3979    7.5622 O.2     1  UNL1       -0.2748
      9 N           8.7085   41.0505    9.7978 N.am    1  UNL1       -0.2815
     10 H           8.3465   40.9075   10.7021 H       1  UNL1        0.1549
     11 C           6.4293   41.9318    9.1805 C.3     1  UNL1        0.0768
     12 C           5.3665   41.0146    8.6067 C.3     1  UNL1        0.0096
     13 C           6.1911   43.3550    8.7134 C.3     1  UNL1        0.0096
     14 C          15.2188   40.9887    8.6382 C.2     1  UNL1        0.2496
     15 O          16.4033   40.9056    9.0592 O.2     1  UNL1       -0.2698
     16 N          14.2563   40.0347    9.1090 N.am    1  UNL1       -0.2779
     17 H          14.5920   39.1344    9.3237 H       1  UNL1        0.1553
     18 C          14.8780   42.0213    7.6343 C.ar    1  UNL1        0.0559
     19 C          15.7130   43.1359    7.4652 C.ar    1  UNL1        0.0342
     20 C          15.4085   44.1112    6.5112 C.ar    1  UNL1        0.1403
     21 C          14.2698   43.9765    5.7131 C.ar    1  UNL1        0.0296
     22 C          13.4373   42.8652    5.8666 C.ar    1  UNL1        0.0025
     23 C          13.7424   41.8905    6.8205 C.ar    1  UNL1        0.0047
     24 F          16.2185   45.1861    6.3599 F       1  UNL1       -0.2042
     25 C          11.6636   36.7967    9.9261 C.3     1  UNL1        0.2525
     26 O          12.3651   37.8791    9.3297 O.3     1  UNL1       -0.4701
     27 C           9.9883   43.7364   10.7596 C.3     1  UNL1        0.2525
     28 O          10.6012   43.2065    9.5919 O.3     1  UNL1       -0.4701
@<TRIPOS>BOND
     1    25    26    1
     2     1    26    1
     3     2     3   ar
     4     3     9    1
     5    11     7    1
     6    11    12    1
     7    11    13    1
     8     4    28    1
     9     4     5   ar
    10    27    28    1
    11     6    16    1
    12     6     1   ar
    13    14    18    1
    14    19    20   ar
    15    20    24    1
    16    21    22   ar
    17    23    18   ar
    18     9     7   am
    19    16    14   am
    20     1     2   ar
    21     3     4   ar
    22     7     8    2
    23     5     6   ar
    24    14    15    2
    25    18    19   ar
    26    20    21   ar
    27    22    23   ar
    28     9    10    1
    29    16    17    1
@<TRIPOS>MOLECULE
MolPort-000-056-042 1324325 MCULE-1065918161 PubChem-1428015 ZINC000001324325 ZINC01324325
 28 29 0 0 0
SMALL
GASTEIGER

@<TRIPOS>ATOM
      1 C          11.3044   41.2808    8.9012 C.ar    1  UNL1        0.1535
      2 C          10.0138   41.7695    8.6483 C.ar    1  UNL1        0.0559
      3 C           9.4170   41.6239    7.3939 C.ar    1  UNL1        0.0879
      4 C          10.1358   41.0077    6.3500 C.ar    1  UNL1        0.1535
      5 C          11.4262   40.5181    6.6031 C.ar    1  UNL1        0.0559
      6 C          12.0220   40.6616    7.8581 C.ar    1  UNL1        0.0881
      7 C           7.3435   42.8664    8.1904 C.2     1  UNL1        0.2257
      8 O           7.9022   43.3173    9.2282 O.2     1  UNL1       -0.2748
      9 N           8.1011   42.1593    7.2035 N.am    1  UNL1       -0.2815
     10 H           7.6841   42.0300    6.3211 H       1  UNL1        0.1549
     11 C           5.8930   43.1213    7.9461 C.3     1  UNL1        0.0768
     12 C           5.6783   44.5361    7.4438 C.3     1  UNL1        0.0096
     13 C           5.0906   42.8952    9.2131 C.3     1  UNL1        0.0096
     14 C          14.5546   40.8821    8.1673 C.2     1  UNL1        0.2496
     15 O          15.4797   40.4221    8.8882 O.2     1  UNL1       -0.2698
     16 N          13.3398   40.1280    8.0486 N.am    1  UNL1       -0.2779
     17 H          13.4184   39.1482    8.1032 H       1  UNL1        0.1553
     18 C          14.7738   42.1438    7.4255 C.ar    1  UNL1        0.0559
     19 C          15.9905   42.8301    7.5559 C.ar    1  UNL1        0.0342
     20 C          16.2143   44.0159    6.8504 C.ar    1  UNL1        0.1403
     21 C          15.2257   44.5218    6.0025 C.ar    1  UNL1        0.0296
     22 C          14.0147   43.8405    5.8579 C.ar    1  UNL1        0.0025
     23 C          13.7917   42.6550    6.5636 C.ar    1  UNL1        0.0047
     24 F          17.3903   44.6735    6.9876 F       1  UNL1       -0.2042
     25 C          11.8808   40.3036   11.1043 C.3     1  UNL1        0.2525
     26 O          11.8684   41.3814   10.1783 O.3     1  UNL1       -0.4701
     27 C           9.8316   39.8320    4.1898 C.3     1  UNL1        0.2525
     28 O           9.5778   40.9192    5.0694 O.3     1  UNL1       -0.4701
@<TRIPOS>BOND
     1    25    26    1
     2     1    26    1
     3     2     3   ar
     4     3     9    1
     5    11     7    1
     6    11    12    1
     7    11    13    1
     8     4    28    1
     9     4     5   ar
    10    27    28    1
    11     6    16    1
    12     6     1   ar
    13    14    18    1
    14    19    20   ar
    15    20    24    1
    16    21    22   ar
    17    23    18   ar
    18     9     7   am
    19    16    14   am
    20     1     2   ar
    21     3     4   ar
    22     7     8    2
    23     5     6   ar
    24    14    15    2
    25    18    19   ar
    26    20    21   ar
    27    22    23   ar
    28     9    10    1
    29    16    17    1
@<TRIPOS>MOLECULE
MolPort-000-056-042 1324325 MCULE-1065918161 PubChem-1428015 ZINC000001324325 ZINC01324325
 28 29 0 0 0
SMALL
GASTEIGER

@<TRIPOS>ATOM
      1 C          12.3428   40.1744   10.2542 C.ar    1  UNL1        0.1535
      2 C          10.9568   40.3841   10.3153 C.ar    1  UNL1        0.0559
      3 C          10.1732   40.3889    9.1591 C.ar    1  UNL1        0.0879
      4 C          10.7879   40.2168    7.9026 C.ar    1  UNL1        0.1535
      5 C          12.1738   40.0062    7.8415 C.ar    1  UNL1        0.0559
      6 C          12.9570   39.9991    8.9978 C.ar    1  UNL1        0.0881
      7 C           8.1449   41.9079    9.3963 C.2     1  UNL1        0.2257
      8 O           8.7796   42.9541    9.0879 O.2     1  UNL1       -0.2748
      9 N           8.7656   40.6224    9.2957 N.am    1  UNL1       -0.2815
     10 H           8.1773   39.8334    9.3225 H       1  UNL1        0.1549
     11 C           6.7129   41.9916    9.8098 C.3     1  UNL1        0.0768
     12 C           6.5282   41.4299   11.2064 C.3     1  UNL1        0.0096
     13 C           5.8299   41.2425    8.8303 C.3     1  UNL1        0.0096
     14 C          15.3690   40.7575    8.5916 C.2     1  UNL1        0.2496
     15 O          16.5239   40.5880    9.0656 O.2     1  UNL1       -0.2698
     16 N          14.3661   39.7677    8.8615 N.am    1  UNL1       -0.2779
     17 H          14.6753   38.8386    8.9631 H       1  UNL1        0.1553
     18 C          15.1053   41.9310    7.7293 C.ar    1  UNL1        0.0559
     19 C          16.0778   42.9332    7.5942 C.ar    1  UNL1        0.0342
     20 C          15.8455   44.0399    6.7726 C.ar    1  UNL1        0.1403
     21 C          14.6411   44.1503    6.0730 C.ar    1  UNL1        0.0296
     22 C          13.6704   43.1527    6.1927 C.ar    1  UNL1        0.0025
     23 C          13.9034   42.0466    7.0145 C.ar    1  UNL1        0.0047
     24 F          16.7888   45.0043    6.6535 F       1  UNL1       -0.2042
     25 C          13.7717   38.9331   11.8535 C.3     1  UNL1        0.2525
     26 O          13.1080   40.1141   11.4245 O.3     1  UNL1       -0.4701
     27 C          10.5211   39.8918    5.4605 C.3     1  UNL1        0.2525
     28 O          10.0253   40.2907    6.7312 O.3     1  UNL1       -0.4701
@<TRIPOS>BOND
     1    25    26    1
     2     1    26    1
     3     2     3   ar
     4     3     9    1
     5    11     7    1
     6    11    12    1
     7    11    13    1
     8     4    28    1
     9     4     5   ar
    10    27    28    1
    11     6    16    1
    12     6     1   ar
    13    14    18    1
    14    19    20   ar
    15    20    24    1
    16    21    22   ar
    17    23    18   ar
    18     9     7   am
    19    16    14   am
    20     1     2   ar
    21     3     4   ar
    22     7     8    2
    23     5     6   ar
    24    14    15    2
    25    18    19   ar
    26    20    21   ar
    27    22    23   ar
    28     9    10    1
    29    16    17    1
