@<TRIPOS>MOLECULE
MolPort-002-762-422 CSSS00132998953 MCULE-2422751069 PubChem-19585499
 29 32 0 0 0
SMALL
GASTEIGER

@<TRIPOS>ATOM
      1 C           8.4185   42.6049    9.1358 C.ar    1  UNL1        0.1346
      2 C          10.2986   41.1409    8.9395 C.ar    1  UNL1        0.1869
      3 N           9.5093   43.0469    9.8011 N.ar    1  UNL1       -0.1421
      4 N          10.5548   42.2293    9.6973 N.ar    1  UNL1       -0.1256
      5 S           8.7239   41.1457    8.3500 S.2     1  UNL1       -0.0328
      6 C           6.8825   43.8813    7.6366 C.3     1  UNL1        0.0335
      7 C           7.1282   43.3544    9.0385 C.3     1  UNL1        0.1526
      8 C           4.0935   41.5531    9.5633 C.ar    1  UNL1        0.0906
      9 C           2.7211   41.1351    9.1638 C.3     1  UNL1        0.0549
     10 C           4.7838   41.1232   10.6808 C.ar    1  UNL1        0.0860
     11 C           6.0016   41.7643   10.6037 C.ar    1  UNL1        0.0680
     12 C           7.1268   41.6454   11.5762 C.3     1  UNL1        0.0527
     13 N           6.0122   42.5303    9.4956 N.ar    1  UNL1       -0.2500
     14 N           4.8568   42.4044    8.8517 N.ar    1  UNL1       -0.1728
     15 CL          4.2378   40.0045   11.9211 Cl      1  UNL1       -0.0797
     16 N          11.2436   40.0988    8.6725 N.pl3   1  UNL1       -0.2754
     17 H          10.9899   39.4066    8.0200 H       1  UNL1        0.1556
     18 C          12.5306   39.9934    9.2877 C.ar    1  UNL1        0.1549
     19 C          14.1137   39.6308   10.7263 C.ar    1  UNL1        0.0984
     20 C          12.7396   39.5382   10.5759 C.ar    1  UNL1        0.0564
     21 N          13.6851   40.3409    8.6951 N.ar    1  UNL1       -0.1537
     22 N          14.6353   40.1093    9.5803 N.ar    1  UNL1       -0.2437
     23 C          16.0428   40.3971    9.3545 C.3     1  UNL1        0.1539
     24 C          16.1898   41.6694    8.5886 C.ar    1  UNL1        0.0021
     25 C          15.1904   42.0655    7.6919 C.ar    1  UNL1       -0.0023
     26 C          15.3036   43.2814    7.0080 C.ar    1  UNL1       -0.0003
     27 C          16.4153   44.1021    7.2218 C.ar    1  UNL1       -0.0000
     28 C          17.4103   43.7113    8.1237 C.ar    1  UNL1       -0.0003
     29 C          17.2963   42.4969    8.8092 C.ar    1  UNL1       -0.0023
@<TRIPOS>BOND
     1     7     6    1
     2     7    13    1
     3     7     1    1
     4     8    10   ar
     5     9     8    1
     6    10    15    1
     7    11    13   ar
     8    12    11    1
     9     1     5   ar
    10     2    16    1
    11     2     5   ar
    12    23    22    1
    13    23    24    1
    14    25    26   ar
    15    27    28   ar
    16    29    24   ar
    17    20    18   ar
    18    13    14   ar
    19     3     4   ar
    20    16    18    1
    21    22    21   ar
    22    22    19   ar
    23     8    14   ar
    24    10    11   ar
    25     1     3   ar
    26     2     4   ar
    27    18    21   ar
    28    24    25   ar
    29    26    27   ar
    30    28    29   ar
    31    19    20   ar
    32    16    17    1
@<TRIPOS>MOLECULE
MolPort-002-762-422 CSSS00132998953 MCULE-2422751069 PubChem-19585499
 29 32 0 0 0
SMALL
GASTEIGER

@<TRIPOS>ATOM
      1 C          12.8206   40.8514    8.3623 C.ar    1  UNL1        0.1346
      2 C          10.6539   40.1460    7.6379 C.ar    1  UNL1        0.1869
      3 N          11.9262   41.8630    8.2949 N.ar    1  UNL1       -0.1421
      4 N          10.7211   41.4722    7.8858 N.ar    1  UNL1       -0.1256
      5 S          12.1238   39.3811    7.9230 S.2     1  UNL1       -0.0328
      6 C          14.9273   39.6595    8.9764 C.3     1  UNL1        0.0335
      7 C          14.2281   41.0001    8.8448 C.3     1  UNL1        0.1526
      8 C          15.4531   43.3049    6.4126 C.ar    1  UNL1        0.0906
      9 C          15.2751   44.2018    5.2371 C.3     1  UNL1        0.0549
     10 C          16.6195   43.1257    7.1320 C.ar    1  UNL1        0.0860
     11 C          16.2809   42.2301    8.1235 C.ar    1  UNL1        0.0680
     12 C          17.1884   41.6962    9.1807 C.3     1  UNL1        0.0527
     13 N          14.9813   41.9055    7.9809 N.ar    1  UNL1       -0.2500
     14 N          14.4663   42.5592    6.9452 N.ar    1  UNL1       -0.1728
     15 CL         18.1843   43.8752    6.8531 Cl      1  UNL1       -0.0797
     16 N           9.4804   39.4660    7.1786 N.pl3   1  UNL1       -0.2754
     17 H           9.6024   38.6148    6.6993 H       1  UNL1        0.1556
     18 C           8.1432   39.9374    7.3677 C.ar    1  UNL1        0.1549
     19 C           6.0645   40.4580    7.0282 C.ar    1  UNL1        0.0984
     20 C           7.1570   39.8814    6.4010 C.ar    1  UNL1        0.0564
     21 N           7.6925   40.5063    8.4982 N.ar    1  UNL1       -0.1537
     22 N           6.4284   40.8108    8.2762 N.ar    1  UNL1       -0.2437
     23 C           5.5765   41.4922    9.2379 C.3     1  UNL1        0.1539
     24 C           5.1015   42.7895    8.6737 C.ar    1  UNL1        0.0021
     25 C           3.7814   43.2036    8.8872 C.ar    1  UNL1       -0.0023
     26 C           3.3472   44.4416    8.3996 C.ar    1  UNL1       -0.0003
     27 C           4.2333   45.2662    7.6995 C.ar    1  UNL1       -0.0000
     28 C           5.5547   44.8572    7.4928 C.ar    1  UNL1       -0.0003
     29 C           5.9897   43.6207    7.9822 C.ar    1  UNL1       -0.0023
@<TRIPOS>BOND
     1     7     6    1
     2     7    13    1
     3     7     1    1
     4     8    10   ar
     5     9     8    1
     6    10    15    1
     7    11    13   ar
     8    12    11    1
     9     1     5   ar
    10     2    16    1
    11     2     5   ar
    12    23    22    1
    13    23    24    1
    14    25    26   ar
    15    27    28   ar
    16    29    24   ar
    17    20    18   ar
    18    13    14   ar
    19     3     4   ar
    20    16    18    1
    21    22    21   ar
    22    22    19   ar
    23     8    14   ar
    24    10    11   ar
    25     1     3   ar
    26     2     4   ar
    27    18    21   ar
    28    24    25   ar
    29    26    27   ar
    30    28    29   ar
    31    19    20   ar
    32    16    17    1
@<TRIPOS>MOLECULE
MolPort-002-762-422 CSSS00132998953 MCULE-2422751069 PubChem-19585499
 29 32 0 0 0
SMALL
GASTEIGER

@<TRIPOS>ATOM
      1 C          13.0904   40.4396    9.0733 C.ar    1  UNL1        0.1346
      2 C          10.8464   39.8022    8.5489 C.ar    1  UNL1        0.1869
      3 N          12.1638   41.2734    9.5969 N.ar    1  UNL1       -0.1421
      4 N          10.9142   40.9226    9.3003 N.ar    1  UNL1       -0.1256
      5 S          12.3723   39.1820    8.2114 S.2     1  UNL1       -0.0328
      6 C          15.2818   39.2430    9.1135 C.3     1  UNL1        0.0335
      7 C          14.5632   40.5670    9.2980 C.3     1  UNL1        0.1526
      8 C          16.4947   43.0691    7.6434 C.ar    1  UNL1        0.0906
      9 C          17.7042   43.9274    7.5076 C.3     1  UNL1        0.0549
     10 C          15.4277   43.0194    6.7663 C.ar    1  UNL1        0.0860
     11 C          14.5818   42.0728    7.3031 C.ar    1  UNL1        0.0680
     12 C          13.2715   41.6360    6.7389 C.3     1  UNL1        0.0527
     13 N          15.1332   41.6010    8.4380 N.ar    1  UNL1       -0.2500
     14 N          16.3013   42.1972    8.6513 N.ar    1  UNL1       -0.1728
     15 CL         15.1999   43.9480    5.2919 Cl      1  UNL1       -0.0797
     16 N           9.6279   39.2115    8.0831 N.pl3   1  UNL1       -0.2754
     17 H           9.5992   38.2316    7.9930 H       1  UNL1        0.1556
     18 C           8.4497   39.9462    7.7395 C.ar    1  UNL1        0.1549
     19 C           6.7036   40.6815    6.6823 C.ar    1  UNL1        0.0984
     20 C           7.7216   39.7473    6.5817 C.ar    1  UNL1        0.0564
     21 N           7.9220   40.9272    8.4904 N.ar    1  UNL1       -0.1537
     22 N           6.8605   41.3581    7.8365 N.ar    1  UNL1       -0.2437
     23 C           6.0218   42.4581    8.2852 C.3     1  UNL1        0.1539
     24 C           5.0528   41.9779    9.3135 C.ar    1  UNL1        0.0021
     25 C           5.3913   42.0279   10.6709 C.ar    1  UNL1       -0.0023
     26 C           4.4661   41.6225   11.6398 C.ar    1  UNL1       -0.0003
     27 C           3.2019   41.1684   11.2516 C.ar    1  UNL1       -0.0000
     28 C           2.8596   41.1260    9.8961 C.ar    1  UNL1       -0.0003
     29 C           3.7834   41.5334    8.9275 C.ar    1  UNL1       -0.0023
@<TRIPOS>BOND
     1     7     6    1
     2     7    13    1
     3     7     1    1
     4     8    10   ar
     5     9     8    1
     6    10    15    1
     7    11    13   ar
     8    12    11    1
     9     1     5   ar
    10     2    16    1
    11     2     5   ar
    12    23    22    1
    13    23    24    1
    14    25    26   ar
    15    27    28   ar
    16    29    24   ar
    17    20    18   ar
    18    13    14   ar
    19     3     4   ar
    20    16    18    1
    21    22    21   ar
    22    22    19   ar
    23     8    14   ar
    24    10    11   ar
    25     1     3   ar
    26     2     4   ar
    27    18    21   ar
    28    24    25   ar
    29    26    27   ar
    30    28    29   ar
    31    19    20   ar
    32    16    17    1
@<TRIPOS>MOLECULE
MolPort-002-762-422 CSSS00132998953 MCULE-2422751069 PubChem-19585499
 29 32 0 0 0
SMALL
GASTEIGER

@<TRIPOS>ATOM
      1 C          12.1968   40.6043    7.5455 C.ar    1  UNL1        0.1346
      2 C          10.2993   41.1760    6.2079 C.ar    1  UNL1        0.1869
      3 N          12.1134   39.8842    6.4043 N.ar    1  UNL1       -0.1421
      4 N          11.0538   40.1976    5.6618 N.ar    1  UNL1       -0.1256
      5 S          10.9300   41.7084    7.6727 S.2     1  UNL1       -0.0328
      6 C          13.7453   39.0561    8.7461 C.3     1  UNL1        0.0335
      7 C          13.3154   40.4958    8.5320 C.3     1  UNL1        0.1526
      8 C          16.4445   42.1179    7.9788 C.ar    1  UNL1        0.0906
      9 C          17.9067   42.2791    8.2112 C.3     1  UNL1        0.0549
     10 C          15.6715   42.8587    7.1048 C.ar    1  UNL1        0.0860
     11 C          14.4053   42.3277    7.2269 C.ar    1  UNL1        0.0680
     12 C          13.1849   42.7736    6.4935 C.3     1  UNL1        0.0527
     13 N          14.4454   41.3299    8.1309 N.ar    1  UNL1       -0.2500
     14 N          15.6841   41.1901    8.5907 N.ar    1  UNL1       -0.1728
     15 CL         16.1850   44.1781    6.0639 Cl      1  UNL1       -0.0797
     16 N           9.1005   41.6968    5.6228 N.pl3   1  UNL1       -0.2754
     17 H           9.0365   41.7050    4.6404 H       1  UNL1        0.1556
     18 C           7.9896   42.2059    6.3664 C.ar    1  UNL1        0.1549
     19 C           6.2120   43.3121    6.9351 C.ar    1  UNL1        0.0984
     20 C           7.0708   43.1096    5.8671 C.ar    1  UNL1        0.0564
     21 N           7.7181   41.8815    7.6415 N.ar    1  UNL1       -0.1537
     22 N           6.6336   42.5575    7.9682 N.ar    1  UNL1       -0.2437
     23 C           6.0261   42.5284    9.2892 C.3     1  UNL1        0.1539
     24 C           7.0553   42.2041   10.3200 C.ar    1  UNL1        0.0021
     25 C           6.7469   41.3229   11.3632 C.ar    1  UNL1       -0.0023
     26 C           7.7249   40.9803   12.3040 C.ar    1  UNL1       -0.0003
     27 C           9.0117   41.5178   12.2011 C.ar    1  UNL1       -0.0000
     28 C           9.3232   42.3918   11.1545 C.ar    1  UNL1       -0.0003
     29 C           8.3464   42.7325   10.2126 C.ar    1  UNL1       -0.0023
@<TRIPOS>BOND
     1     7     6    1
     2     7    13    1
     3     7     1    1
     4     8    10   ar
     5     9     8    1
     6    10    15    1
     7    11    13   ar
     8    12    11    1
     9     1     5   ar
    10     2    16    1
    11     2     5   ar
    12    23    22    1
    13    23    24    1
    14    25    26   ar
    15    27    28   ar
    16    29    24   ar
    17    20    18   ar
    18    13    14   ar
    19     3     4   ar
    20    16    18    1
    21    22    21   ar
    22    22    19   ar
    23     8    14   ar
    24    10    11   ar
    25     1     3   ar
    26     2     4   ar
    27    18    21   ar
    28    24    25   ar
    29    26    27   ar
    30    28    29   ar
    31    19    20   ar
    32    16    17    1
@<TRIPOS>MOLECULE
MolPort-002-762-422 CSSS00132998953 MCULE-2422751069 PubChem-19585499
 29 32 0 0 0
SMALL
GASTEIGER

@<TRIPOS>ATOM
      1 C          13.0433   40.3018    8.6315 C.ar    1  UNL1        0.1346
      2 C          10.7465   39.7208    8.3089 C.ar    1  UNL1        0.1869
      3 N          12.7871   39.8072    7.3996 N.ar    1  UNL1       -0.1421
      4 N          11.5096   39.4777    7.2212 N.ar    1  UNL1       -0.1256
      5 S          11.6462   40.3718    9.5714 S.2     1  UNL1       -0.0328
      6 C          15.3624   39.6685    9.3072 C.3     1  UNL1        0.0335
      7 C          14.3795   40.8021    9.0789 C.3     1  UNL1        0.1526
      8 C          15.0196   43.2268    6.5411 C.ar    1  UNL1        0.0906
      9 C          14.5905   44.1094    5.4209 C.3     1  UNL1        0.0549
     10 C          16.2894   43.1548    7.0819 C.ar    1  UNL1        0.0860
     11 C          16.1828   42.2254    8.0941 C.ar    1  UNL1        0.0680
     12 C          17.2795   41.7739    8.9994 C.3     1  UNL1        0.0527
     13 N          14.9121   41.7799    8.1335 N.ar    1  UNL1       -0.2500
     14 N          14.1940   42.3878    7.1953 N.ar    1  UNL1       -0.1728
     15 CL         17.7207   44.0510    6.5956 Cl      1  UNL1       -0.0797
     16 N           9.3425   39.4513    8.3904 N.pl3   1  UNL1       -0.2754
     17 H           9.0617   38.6097    8.8170 H       1  UNL1        0.1556
     18 C           8.3196   40.3199    7.8951 C.ar    1  UNL1        0.1549
     19 C           6.9675   41.3816    6.5716 C.ar    1  UNL1        0.0984
     20 C           7.9700   40.4255    6.5621 C.ar    1  UNL1        0.0564
     21 N           7.5912   41.1481    8.6621 N.ar    1  UNL1       -0.1537
     22 N           6.7725   41.7802    7.8434 N.ar    1  UNL1       -0.2437
     23 C           5.8372   42.8104    8.2662 C.3     1  UNL1        0.1539
     24 C           4.9870   42.3042    9.3832 C.ar    1  UNL1        0.0021
     25 C           5.5804   41.6769   10.4850 C.ar    1  UNL1       -0.0023
     26 C           4.7894   41.2439   11.5555 C.ar    1  UNL1       -0.0003
     27 C           3.4052   41.4394   11.5250 C.ar    1  UNL1       -0.0000
     28 C           2.8123   42.0736   10.4284 C.ar    1  UNL1       -0.0003
     29 C           3.6030   42.5086    9.3593 C.ar    1  UNL1       -0.0023
@<TRIPOS>BOND
     1     7     6    1
     2     7    13    1
     3     7     1    1
     4     8    10   ar
     5     9     8    1
     6    10    15    1
     7    11    13   ar
     8    12    11    1
     9     1     5   ar
    10     2    16    1
    11     2     5   ar
    12    23    22    1
    13    23    24    1
    14    25    26   ar
    15    27    28   ar
    16    29    24   ar
    17    20    18   ar
    18    13    14   ar
    19     3     4   ar
    20    16    18    1
    21    22    21   ar
    22    22    19   ar
    23     8    14   ar
    24    10    11   ar
    25     1     3   ar
    26     2     4   ar
    27    18    21   ar
    28    24    25   ar
    29    26    27   ar
    30    28    29   ar
    31    19    20   ar
    32    16    17    1
@<TRIPOS>MOLECULE
MolPort-002-762-422 CSSS00132998953 MCULE-2422751069 PubChem-19585499
 29 32 0 0 0
SMALL
GASTEIGER

@<TRIPOS>ATOM
      1 C          12.6525   36.9976    9.7614 C.ar    1  UNL1        0.1346
      2 C          11.4713   38.6762    8.5351 C.ar    1  UNL1        0.1869
      3 N          11.3102   36.9105    9.8969 N.ar    1  UNL1       -0.1421
      4 N          10.6519   37.8485    9.2193 N.ar    1  UNL1       -0.1256
      5 S          13.0891   38.2700    8.7462 S.2     1  UNL1       -0.0328
      6 C          13.5246   34.6577    9.7435 C.3     1  UNL1        0.0335
      7 C          13.6260   36.0377   10.3670 C.3     1  UNL1        0.1526
      8 C          17.0382   36.8118    9.6693 C.ar    1  UNL1        0.0906
      9 C          18.3190   36.5924    8.9419 C.3     1  UNL1        0.0549
     10 C          16.7885   37.8028   10.5998 C.ar    1  UNL1        0.0860
     11 C          15.4738   37.6103   10.9666 C.ar    1  UNL1        0.0680
     12 C          14.7041   38.4198   11.9557 C.3     1  UNL1        0.0527
     13 N          14.9889   36.5561   10.2825 N.ar    1  UNL1       -0.2500
     14 N          15.9321   36.0660    9.4852 N.ar    1  UNL1       -0.1728
     15 CL         17.8943   39.0381   11.1823 Cl      1  UNL1       -0.0797
     16 N          11.0263   39.7753    7.7323 N.pl3   1  UNL1       -0.2754
     17 H          10.1820   39.6686    7.2373 H       1  UNL1        0.1556
     18 C          11.7232   41.0174    7.5994 C.ar    1  UNL1        0.1549
     19 C          12.3453   43.0797    7.8581 C.ar    1  UNL1        0.0984
     20 C          11.4409   42.1485    8.3419 C.ar    1  UNL1        0.0564
     21 N          12.7202   41.2378    6.7264 N.ar    1  UNL1       -0.1537
     22 N          13.0891   42.4922    6.9010 N.ar    1  UNL1       -0.2437
     23 C          14.1181   43.1528    6.1139 C.3     1  UNL1        0.1539
     24 C          15.4160   43.1375    6.8502 C.ar    1  UNL1        0.0021
     25 C          16.3553   44.1526    6.6332 C.ar    1  UNL1       -0.0023
     26 C          17.5530   44.1663    7.3574 C.ar    1  UNL1       -0.0003
     27 C          17.8109   43.1658    8.2996 C.ar    1  UNL1       -0.0000
     28 C          16.8695   42.1559    8.5232 C.ar    1  UNL1       -0.0003
     29 C          15.6712   42.1433    7.8011 C.ar    1  UNL1       -0.0023
@<TRIPOS>BOND
     1     7     6    1
     2     7    13    1
     3     7     1    1
     4     8    10   ar
     5     9     8    1
     6    10    15    1
     7    11    13   ar
     8    12    11    1
     9     1     5   ar
    10     2    16    1
    11     2     5   ar
    12    23    22    1
    13    23    24    1
    14    25    26   ar
    15    27    28   ar
    16    29    24   ar
    17    20    18   ar
    18    13    14   ar
    19     3     4   ar
    20    16    18    1
    21    22    21   ar
    22    22    19   ar
    23     8    14   ar
    24    10    11   ar
    25     1     3   ar
    26     2     4   ar
    27    18    21   ar
    28    24    25   ar
    29    26    27   ar
    30    28    29   ar
    31    19    20   ar
    32    16    17    1
@<TRIPOS>MOLECULE
MolPort-002-762-422 CSSS00132998953 MCULE-2422751069 PubChem-19585499
 29 32 0 0 0
SMALL
GASTEIGER

@<TRIPOS>ATOM
      1 C           8.4476   42.4894    9.1396 C.ar    1  UNL1        0.1346
      2 C          10.2303   40.9328    8.7998 C.ar    1  UNL1        0.1869
      3 N           9.6128   42.8835    9.7008 N.ar    1  UNL1       -0.1421
      4 N          10.6044   42.0144    9.5173 N.ar    1  UNL1       -0.1256
      5 S           8.6120   41.0096    8.3502 S.2     1  UNL1       -0.0328
      6 C           6.9320   43.9539    7.8001 C.3     1  UNL1        0.0335
      7 C           7.1914   43.3006    9.1451 C.3     1  UNL1        0.1526
      8 C           4.1205   41.5354    9.5730 C.ar    1  UNL1        0.0906
      9 C           2.7579   41.1308    9.1285 C.3     1  UNL1        0.0549
     10 C           4.7674   41.1028   10.7152 C.ar    1  UNL1        0.0860
     11 C           5.9942   41.7299   10.6772 C.ar    1  UNL1        0.0680
     12 C           7.0842   41.6028   11.6881 C.3     1  UNL1        0.0527
     13 N           6.0513   42.4909    9.5671 N.ar    1  UNL1       -0.2500
     14 N           4.9172   42.3750    8.8846 N.ar    1  UNL1       -0.1728
     15 CL          4.1668   39.9956   11.9406 Cl      1  UNL1       -0.0797
     16 N          11.0969   39.8429    8.4656 N.pl3   1  UNL1       -0.2754
     17 H          10.8860   39.3213    7.6576 H       1  UNL1        0.1556
     18 C          12.2476   39.4593    9.2238 C.ar    1  UNL1        0.1549
     19 C          13.6273   39.1207   10.8636 C.ar    1  UNL1        0.0984
     20 C          12.3576   39.6050   10.5938 C.ar    1  UNL1        0.0564
     21 N          13.3629   38.9301    8.6939 N.ar    1  UNL1       -0.1537
     22 N          14.1868   38.7261    9.7036 N.ar    1  UNL1       -0.2437
     23 C          15.5363   38.2041    9.5574 C.3     1  UNL1        0.1539
     24 C          15.4910   36.7467    9.2400 C.ar    1  UNL1        0.0021
     25 C          14.3258   36.0122    9.4904 C.ar    1  UNL1       -0.0023
     26 C          14.2649   34.6560    9.1497 C.ar    1  UNL1       -0.0003
     27 C          15.3685   34.0345    8.5572 C.ar    1  UNL1       -0.0000
     28 C          16.5301   34.7694    8.2989 C.ar    1  UNL1       -0.0003
     29 C          16.5905   36.1257    8.6373 C.ar    1  UNL1       -0.0023
@<TRIPOS>BOND
     1     7     6    1
     2     7    13    1
     3     7     1    1
     4     8    10   ar
     5     9     8    1
     6    10    15    1
     7    11    13   ar
     8    12    11    1
     9     1     5   ar
    10     2    16    1
    11     2     5   ar
    12    23    22    1
    13    23    24    1
    14    25    26   ar
    15    27    28   ar
    16    29    24   ar
    17    20    18   ar
    18    13    14   ar
    19     3     4   ar
    20    16    18    1
    21    22    21   ar
    22    22    19   ar
    23     8    14   ar
    24    10    11   ar
    25     1     3   ar
    26     2     4   ar
    27    18    21   ar
    28    24    25   ar
    29    26    27   ar
    30    28    29   ar
    31    19    20   ar
    32    16    17    1
@<TRIPOS>MOLECULE
MolPort-002-762-422 CSSS00132998953 MCULE-2422751069 PubChem-19585499
 29 32 0 0 0
SMALL
GASTEIGER

@<TRIPOS>ATOM
      1 C          13.9556   39.8891    9.4050 C.ar    1  UNL1        0.1346
      2 C          11.5808   39.6806    9.2216 C.ar    1  UNL1        0.1869
      3 N          13.5708   38.8657    8.6098 N.ar    1  UNL1       -0.1421
      4 N          12.2485   38.7451    8.5119 N.ar    1  UNL1       -0.1256
      5 S          12.6283   40.7247   10.0214 S.2     1  UNL1       -0.0328
      6 C          16.3268   39.1100    9.4845 C.3     1  UNL1        0.0335
      7 C          15.3781   40.2839    9.6432 C.3     1  UNL1        0.1526
      8 C          16.9108   42.9884    7.8924 C.ar    1  UNL1        0.0906
      9 C          18.0352   43.9339    7.6480 C.3     1  UNL1        0.0549
     10 C          15.7413   42.9059    7.1604 C.ar    1  UNL1        0.0860
     11 C          15.0356   41.8789    7.7496 C.ar    1  UNL1        0.0680
     12 C          13.6915   41.3793    7.3375 C.3     1  UNL1        0.0527
     13 N          15.7622   41.3939    8.7750 N.ar    1  UNL1       -0.2500
     14 N          16.9087   42.0590    8.8669 N.ar    1  UNL1       -0.1728
     15 CL         15.2608   43.8844    5.7821 Cl      1  UNL1       -0.0797
     16 N          10.1539   39.7744    9.2977 N.pl3   1  UNL1       -0.2754
     17 H           9.6449   38.9382    9.4023 H       1  UNL1        0.1556
     18 C           9.4167   40.9984    9.2323 C.ar    1  UNL1        0.1549
     19 C           8.5903   42.9453    9.7157 C.ar    1  UNL1        0.0984
     20 C           9.4630   41.9844   10.1997 C.ar    1  UNL1        0.0564
     21 N           8.5793   41.3268    8.2345 N.ar    1  UNL1       -0.1537
     22 N           8.0911   42.5131    8.5416 N.ar    1  UNL1       -0.2437
     23 C           7.1012   43.2157    7.7409 C.3     1  UNL1        0.1539
     24 C           5.7411   43.0273    8.3253 C.ar    1  UNL1        0.0021
     25 C           4.8010   44.0624    8.2573 C.ar    1  UNL1       -0.0023
     26 C           3.5098   43.8712    8.7624 C.ar    1  UNL1       -0.0003
     27 C           3.1579   42.6447    9.3342 C.ar    1  UNL1       -0.0000
     28 C           4.0938   41.6070    9.3950 C.ar    1  UNL1       -0.0003
     29 C           5.3839   41.7970    8.8881 C.ar    1  UNL1       -0.0023
@<TRIPOS>BOND
     1     7     6    1
     2     7    13    1
     3     7     1    1
     4     8    10   ar
     5     9     8    1
     6    10    15    1
     7    11    13   ar
     8    12    11    1
     9     1     5   ar
    10     2    16    1
    11     2     5   ar
    12    23    22    1
    13    23    24    1
    14    25    26   ar
    15    27    28   ar
    16    29    24   ar
    17    20    18   ar
    18    13    14   ar
    19     3     4   ar
    20    16    18    1
    21    22    21   ar
    22    22    19   ar
    23     8    14   ar
    24    10    11   ar
    25     1     3   ar
    26     2     4   ar
    27    18    21   ar
    28    24    25   ar
    29    26    27   ar
    30    28    29   ar
    31    19    20   ar
    32    16    17    1
@<TRIPOS>MOLECULE
MolPort-002-762-422 CSSS00132998953 MCULE-2422751069 PubChem-19585499
 29 32 0 0 0
SMALL
GASTEIGER

@<TRIPOS>ATOM
      1 C          10.5079   41.7285   10.5739 C.ar    1  UNL1        0.1346
      2 C          12.3632   40.2540   10.2570 C.ar    1  UNL1        0.1869
      3 N          10.7509   40.9405   11.6453 N.ar    1  UNL1       -0.1421
      4 N          11.7800   40.1149   11.4674 N.ar    1  UNL1       -0.1256
      5 S          11.6085   41.4375    9.3313 S.2     1  UNL1       -0.0328
      6 C          10.0159   44.1376   10.1374 C.3     1  UNL1        0.0335
      7 C           9.4497   42.7839   10.5252 C.3     1  UNL1        0.1526
      8 C           7.2370   42.0176    7.8334 C.ar    1  UNL1        0.0906
      9 C           6.8951   41.9463    6.3856 C.3     1  UNL1        0.0549
     10 C           6.4422   41.5916    8.8807 C.ar    1  UNL1        0.0860
     11 C           7.1924   41.8427   10.0094 C.ar    1  UNL1        0.0680
     12 C           6.7894   41.5655   11.4190 C.3     1  UNL1        0.0527
     13 N           8.3635   42.3906    9.6313 N.ar    1  UNL1       -0.2500
     14 N           8.4031   42.4962    8.3074 N.ar    1  UNL1       -0.1728
     15 CL          4.8369   40.8817    8.7964 Cl      1  UNL1       -0.0797
     16 N          13.4829   39.4849    9.8038 N.pl3   1  UNL1       -0.2754
     17 H          13.3352   38.5307    9.6113 H       1  UNL1        0.1556
     18 C          14.8008   40.0064    9.6115 C.ar    1  UNL1        0.1549
     19 C          16.9445   40.3143    9.7422 C.ar    1  UNL1        0.0984
     20 C          15.9355   39.4847   10.2037 C.ar    1  UNL1        0.0564
     21 N          15.0900   41.0740    8.8490 N.ar    1  UNL1       -0.1537
     22 N          16.3954   41.2430    8.9357 N.ar    1  UNL1       -0.2437
     23 C          17.1179   42.3284    8.2917 C.3     1  UNL1        0.1539
     24 C          16.2162   43.0598    7.3543 C.ar    1  UNL1        0.0021
     25 C          14.9791   42.5082    7.0004 C.ar    1  UNL1       -0.0023
     26 C          14.1115   43.2141    6.1590 C.ar    1  UNL1       -0.0003
     27 C          14.4800   44.4721    5.6726 C.ar    1  UNL1       -0.0000
     28 C          15.7121   45.0279    6.0323 C.ar    1  UNL1       -0.0003
     29 C          16.5786   44.3235    6.8752 C.ar    1  UNL1       -0.0023
@<TRIPOS>BOND
     1     7     6    1
     2     7    13    1
     3     7     1    1
     4     8    10   ar
     5     9     8    1
     6    10    15    1
     7    11    13   ar
     8    12    11    1
     9     1     5   ar
    10     2    16    1
    11     2     5   ar
    12    23    22    1
    13    23    24    1
    14    25    26   ar
    15    27    28   ar
    16    29    24   ar
    17    20    18   ar
    18    13    14   ar
    19     3     4   ar
    20    16    18    1
    21    22    21   ar
    22    22    19   ar
    23     8    14   ar
    24    10    11   ar
    25     1     3   ar
    26     2     4   ar
    27    18    21   ar
    28    24    25   ar
    29    26    27   ar
    30    28    29   ar
    31    19    20   ar
    32    16    17    1
@<TRIPOS>MOLECULE
MolPort-002-762-422 CSSS00132998953 MCULE-2422751069 PubChem-19585499
 29 32 0 0 0
SMALL
GASTEIGER

@<TRIPOS>ATOM
      1 C           8.7355   42.5304    8.6641 C.ar    1  UNL1        0.1346
      2 C          10.2314   41.6595   10.3135 C.ar    1  UNL1        0.1869
      3 N           9.0274   43.4189    9.6404 N.ar    1  UNL1       -0.1421
      4 N           9.8555   42.9328   10.5625 N.ar    1  UNL1       -0.1256
      5 S           9.5354   41.0664    8.9026 S.2     1  UNL1       -0.0328
      6 C           7.8734   41.6922    6.4755 C.3     1  UNL1        0.0335
      7 C           7.8778   42.8325    7.4770 C.3     1  UNL1        0.1526
      8 C           4.6348   44.2087    8.0410 C.ar    1  UNL1        0.0906
      9 C           3.5723   45.2243    7.8011 C.3     1  UNL1        0.0549
     10 C           4.5309   43.0967    8.8552 C.ar    1  UNL1        0.0860
     11 C           5.7487   42.4628    8.7329 C.ar    1  UNL1        0.0680
     12 C           6.1615   41.2014    9.4146 C.3     1  UNL1        0.0527
     13 N           6.5199   43.1769    7.8904 N.ar    1  UNL1       -0.2500
     14 N           5.8488   44.2393    7.4587 N.ar    1  UNL1       -0.1728
     15 CL          3.1540   42.5957    9.8253 Cl      1  UNL1       -0.0797
     16 N          11.1084   40.8955   11.1488 N.pl3   1  UNL1       -0.2754
     17 H          10.7970   40.6708   12.0553 H       1  UNL1        0.1556
     18 C          12.4053   40.4361   10.7577 C.ar    1  UNL1        0.1549
     19 C          14.2401   40.1190    9.6440 C.ar    1  UNL1        0.0984
     20 C          13.0473   40.8221    9.5961 C.ar    1  UNL1        0.0564
     21 N          13.1444   39.5626   11.4616 N.ar    1  UNL1       -0.1537
     22 N          14.2562   39.3860   10.7740 N.ar    1  UNL1       -0.2437
     23 C          15.3168   38.4717   11.1663 C.3     1  UNL1        0.1539
     24 C          15.2942   37.2575   10.2991 C.ar    1  UNL1        0.0021
     25 C          14.1413   36.4661   10.2335 C.ar    1  UNL1       -0.0023
     26 C          14.1015   35.3539    9.3847 C.ar    1  UNL1       -0.0003
     27 C          15.2140   35.0337    8.6005 C.ar    1  UNL1       -0.0000
     28 C          16.3634   35.8285    8.6590 C.ar    1  UNL1       -0.0003
     29 C          16.4026   36.9417    9.5056 C.ar    1  UNL1       -0.0023
@<TRIPOS>BOND
     1     7     6    1
     2     7    13    1
     3     7     1    1
     4     8    10   ar
     5     9     8    1
     6    10    15    1
     7    11    13   ar
     8    12    11    1
     9     1     5   ar
    10     2    16    1
    11     2     5   ar
    12    23    22    1
    13    23    24    1
    14    25    26   ar
    15    27    28   ar
    16    29    24   ar
    17    20    18   ar
    18    13    14   ar
    19     3     4   ar
    20    16    18    1
    21    22    21   ar
    22    22    19   ar
    23     8    14   ar
    24    10    11   ar
    25     1     3   ar
    26     2     4   ar
    27    18    21   ar
    28    24    25   ar
    29    26    27   ar
    30    28    29   ar
    31    19    20   ar
    32    16    17    1
