@<TRIPOS>MOLECULE
MolPort-045-901-900 CSSS00160240507 MCULE-5455986199 PubChem-13064304
 26 28 0 0 0
SMALL
GASTEIGER

@<TRIPOS>ATOM
      1 C          11.1515   38.8326    7.8536 C.ar    1  UNL1        0.0544
      2 C          12.5283   38.5931    7.9304 C.ar    1  UNL1        0.0297
      3 C          13.0435   37.7057    8.8845 C.ar    1  UNL1        0.0553
      4 C          12.1752   37.0473    9.7574 C.ar    1  UNL1       -0.0077
      5 C          12.7360   36.1044   10.7574 C.3     1  UNL1        0.0323
      6 C          13.2162   34.8397   10.0623 C.3     1  UNL1        0.0323
      7 C          14.4124   34.9645    9.1472 C.ar    1  UNL1       -0.0078
      8 C          14.9781   33.7439    8.7566 C.ar    1  UNL1       -0.0030
      9 C          16.1049   33.6975    7.9343 C.ar    1  UNL1       -0.0002
     10 C          16.6857   34.8800    7.4857 C.ar    1  UNL1        0.0013
     11 C          16.1322   36.1070    7.8522 C.ar    1  UNL1        0.0149
     12 C          14.9987   36.1801    8.6816 C.ar    1  UNL1        0.0541
     13 C          15.3258   38.5751    9.3790 C.2     1  UNL1        0.2344
     14 C          10.7977   37.2757    9.6855 C.ar    1  UNL1       -0.0017
     15 C          10.2875   38.1664    8.7364 C.ar    1  UNL1        0.0145
     16 O          16.5684   38.3966    9.4840 O.2     1  UNL1       -0.2742
     17 N          14.4579   37.4843    8.9884 N.am    1  UNL1       -0.2379
     18 C           9.7243   39.3861    5.8071 C.2     1  UNL1        0.4055
     19 O           9.0392   38.3291    5.8775 O.2     1  UNL1       -0.2261
     20 N          10.6595   39.7192    6.8395 N.am    1  UNL1       -0.2499
     21 H          10.9963   40.6442    6.8544 H       1  UNL1        0.1582
     22 C          10.4333   40.2555    3.6136 C.3     1  UNL1        0.2574
     23 O           9.5601   40.2643    4.7346 O.3     1  UNL1       -0.4304
     24 C          14.7664   39.9105    9.7578 C.3     1  UNL1        0.1034
     25 C          13.9533   39.7821   11.0305 C.3     1  UNL1        0.1045
     26 CL         14.7918   38.6918   12.1563 Cl      1  UNL1       -0.1132
@<TRIPOS>BOND
     1    22    23    1
     2    18    23    1
     3    18    20   am
     4     2     3   ar
     5     4    14   ar
     6     5     4    1
     7     5     6    1
     8     6     7    1
     9     8     9   ar
    10    10    11   ar
    11    12    17    1
    12    12     7   ar
    13    24    13    1
    14    24    25    1
    15    25    26    1
    16    15     1   ar
    17    20     1    1
    18    17    13   am
    19    17     3    1
    20    18    19    2
    21     1     2   ar
    22     3     4   ar
    23     7     8   ar
    24     9    10   ar
    25    11    12   ar
    26    13    16    2
    27    14    15   ar
    28    20    21    1
@<TRIPOS>MOLECULE
MolPort-045-901-900 CSSS00160240507 MCULE-5455986199 PubChem-13064304
 26 28 0 0 0
SMALL
GASTEIGER

@<TRIPOS>ATOM
      1 C          13.4965   41.9403    7.3183 C.ar    1  UNL1        0.0544
      2 C          12.2524   41.9050    6.6782 C.ar    1  UNL1        0.0297
      3 C          11.1364   41.3556    7.3231 C.ar    1  UNL1        0.0553
      4 C          11.2646   40.8500    8.6182 C.ar    1  UNL1       -0.0077
      5 C          10.0710   40.2783    9.2904 C.3     1  UNL1        0.0323
      6 C           9.1103   41.3935    9.6735 C.3     1  UNL1        0.0323
      7 C           8.4251   42.1336    8.5481 C.ar    1  UNL1       -0.0078
      8 C           7.3584   42.9481    8.9497 C.ar    1  UNL1       -0.0030
      9 C           6.6106   43.6733    8.0208 C.ar    1  UNL1       -0.0002
     10 C           6.9222   43.5954    6.6667 C.ar    1  UNL1        0.0013
     11 C           7.9878   42.8001    6.2449 C.ar    1  UNL1        0.0149
     12 C           8.7548   42.0582    7.1611 C.ar    1  UNL1        0.0541
     13 C           9.7236   40.4619    5.4751 C.2     1  UNL1        0.2344
     14 C          12.5019   40.8851    9.2683 C.ar    1  UNL1       -0.0017
     15 C          13.6148   41.4284    8.6197 C.ar    1  UNL1        0.0145
     16 O           8.6150   40.3824    4.8823 O.2     1  UNL1       -0.2742
     17 N           9.8672   41.2867    6.6561 N.am    1  UNL1       -0.2379
     18 C          14.5508   43.6915    5.7843 C.2     1  UNL1        0.4055
     19 O          13.5348   44.4393    5.7775 O.2     1  UNL1       -0.2261
     20 N          14.6063   42.5441    6.6398 N.am    1  UNL1       -0.2499
     21 H          15.4897   42.1310    6.7748 H       1  UNL1        0.1582
     22 C          16.9753   44.0189    5.4936 C.3     1  UNL1        0.2574
     23 O          15.6513   43.9878    4.9784 O.3     1  UNL1       -0.4304
     24 C          10.8536   39.6128    4.9832 C.3     1  UNL1        0.1034
     25 C          10.6233   39.2461    3.5307 C.3     1  UNL1        0.1045
     26 CL         10.0169   37.5781    3.4345 Cl      1  UNL1       -0.1132
@<TRIPOS>BOND
     1    22    23    1
     2    18    23    1
     3    18    20   am
     4     2     3   ar
     5     4    14   ar
     6     5     4    1
     7     5     6    1
     8     6     7    1
     9     8     9   ar
    10    10    11   ar
    11    12    17    1
    12    12     7   ar
    13    24    13    1
    14    24    25    1
    15    25    26    1
    16    15     1   ar
    17    20     1    1
    18    17    13   am
    19    17     3    1
    20    18    19    2
    21     1     2   ar
    22     3     4   ar
    23     7     8   ar
    24     9    10   ar
    25    11    12   ar
    26    13    16    2
    27    14    15   ar
    28    20    21    1
@<TRIPOS>MOLECULE
MolPort-045-901-900 CSSS00160240507 MCULE-5455986199 PubChem-13064304
 26 28 0 0 0
SMALL
GASTEIGER

@<TRIPOS>ATOM
      1 C          10.6355   41.1430   10.4922 C.ar    1  UNL1        0.0544
      2 C          11.9486   40.6938   10.3109 C.ar    1  UNL1        0.0297
      3 C          12.5399   40.7197    9.0409 C.ar    1  UNL1        0.0553
      4 C          11.8171   41.2078    7.9507 C.ar    1  UNL1       -0.0077
      5 C          12.4606   41.2357    6.6133 C.3     1  UNL1        0.0323
      6 C          13.5212   42.3250    6.5730 C.3     1  UNL1        0.0323
      7 C          14.7497   42.1269    7.4305 C.ar    1  UNL1       -0.0078
      8 C          15.8045   43.0053    7.1505 C.ar    1  UNL1       -0.0030
      9 C          17.0151   42.9275    7.8409 C.ar    1  UNL1       -0.0002
     10 C          17.1890   41.9640    8.8300 C.ar    1  UNL1        0.0013
     11 C          16.1481   41.0864    9.1340 C.ar    1  UNL1        0.0149
     12 C          14.9199   41.1432    8.4511 C.ar    1  UNL1        0.0541
     13 C          14.1589   38.8256    9.0664 C.2     1  UNL1        0.2344
     14 C          10.5066   41.6636    8.1221 C.ar    1  UNL1       -0.0017
     15 C           9.9173   41.6307    9.3894 C.ar    1  UNL1        0.0145
     16 O          15.3220   38.3746    8.8912 O.2     1  UNL1       -0.2742
     17 N          13.8742   40.2276    8.8457 N.am    1  UNL1       -0.2379
     18 C           8.7162   41.4139   12.1579 C.2     1  UNL1        0.4055
     19 O           7.8187   41.4245   11.2713 O.2     1  UNL1       -0.2261
     20 N          10.0783   41.1352   11.8136 N.am    1  UNL1       -0.2499
     21 H          10.6897   40.9177   12.5539 H       1  UNL1        0.1582
     22 C           9.1532   41.0960   14.5616 C.3     1  UNL1        0.2574
     23 O           8.3907   41.6448   13.4955 O.3     1  UNL1       -0.4304
     24 C          13.0691   37.8609    9.4147 C.3     1  UNL1        0.1034
     25 C          13.3654   37.2159   10.7539 C.3     1  UNL1        0.1045
     26 CL         14.0962   38.4204   11.8376 Cl      1  UNL1       -0.1132
@<TRIPOS>BOND
     1    22    23    1
     2    18    23    1
     3    18    20   am
     4     2     3   ar
     5     4    14   ar
     6     5     4    1
     7     5     6    1
     8     6     7    1
     9     8     9   ar
    10    10    11   ar
    11    12    17    1
    12    12     7   ar
    13    24    13    1
    14    24    25    1
    15    25    26    1
    16    15     1   ar
    17    20     1    1
    18    17    13   am
    19    17     3    1
    20    18    19    2
    21     1     2   ar
    22     3     4   ar
    23     7     8   ar
    24     9    10   ar
    25    11    12   ar
    26    13    16    2
    27    14    15   ar
    28    20    21    1
@<TRIPOS>MOLECULE
MolPort-045-901-900 CSSS00160240507 MCULE-5455986199 PubChem-13064304
 26 28 0 0 0
SMALL
GASTEIGER

@<TRIPOS>ATOM
      1 C           5.5995   42.4652    9.4057 C.ar    1  UNL1        0.0544
      2 C           6.7388   42.7068    8.6295 C.ar    1  UNL1        0.0297
      3 C           7.9200   41.9884    8.8575 C.ar    1  UNL1        0.0553
      4 C           7.9565   41.0165    9.8593 C.ar    1  UNL1       -0.0077
      5 C           9.2131   40.2587   10.0831 C.3     1  UNL1        0.0323
      6 C           9.4391   39.2835    8.9381 C.3     1  UNL1        0.0323
      7 C           9.7470   39.8702    7.5798 C.ar    1  UNL1       -0.0078
      8 C          10.2147   38.9454    6.6372 C.ar    1  UNL1       -0.0030
      9 C          10.5671   39.3418    5.3462 C.ar    1  UNL1       -0.0002
     10 C          10.4542   40.6785    4.9757 C.ar    1  UNL1        0.0013
     11 C           9.9793   41.6150    5.8941 C.ar    1  UNL1        0.0149
     12 C           9.6201   41.2409    7.2014 C.ar    1  UNL1        0.0541
     13 C           9.7416   43.5516    8.1888 C.2     1  UNL1        0.2344
     14 C           6.8223   40.7640   10.6368 C.ar    1  UNL1       -0.0017
     15 C           5.6473   41.4869   10.4108 C.ar    1  UNL1        0.0145
     16 O          10.7831   43.8026    7.5261 O.2     1  UNL1       -0.2742
     17 N           9.1001   42.2580    8.0861 N.am    1  UNL1       -0.2379
     18 C           4.2652   44.2614    8.1709 C.2     1  UNL1        0.4055
     19 O           5.1568   44.4647    7.3017 O.2     1  UNL1       -0.2261
     20 N           4.3991   43.1948    9.1174 N.am    1  UNL1       -0.2499
     21 H           3.5906   42.9384    9.6173 H       1  UNL1        0.1582
     22 C           2.7146   45.8443    7.0938 C.3     1  UNL1        0.2574
     23 O           3.1178   45.0555    8.2050 O.3     1  UNL1       -0.4304
     24 C           9.2448   44.5869    9.1486 C.3     1  UNL1        0.1034
     25 C          10.4199   45.2512    9.8380 C.3     1  UNL1        0.1045
     26 CL         10.8698   46.7217    8.9466 Cl      1  UNL1       -0.1132
@<TRIPOS>BOND
     1    22    23    1
     2    18    23    1
     3    18    20   am
     4     2     3   ar
     5     4    14   ar
     6     5     4    1
     7     5     6    1
     8     6     7    1
     9     8     9   ar
    10    10    11   ar
    11    12    17    1
    12    12     7   ar
    13    24    13    1
    14    24    25    1
    15    25    26    1
    16    15     1   ar
    17    20     1    1
    18    17    13   am
    19    17     3    1
    20    18    19    2
    21     1     2   ar
    22     3     4   ar
    23     7     8   ar
    24     9    10   ar
    25    11    12   ar
    26    13    16    2
    27    14    15   ar
    28    20    21    1
@<TRIPOS>MOLECULE
MolPort-045-901-900 CSSS00160240507 MCULE-5455986199 PubChem-13064304
 26 28 0 0 0
SMALL
GASTEIGER

@<TRIPOS>ATOM
      1 C          10.6709   39.6898    6.4588 C.ar    1  UNL1        0.0544
      2 C          11.9918   39.8976    6.8721 C.ar    1  UNL1        0.0297
      3 C          12.2645   40.4457    8.1325 C.ar    1  UNL1        0.0553
      4 C          11.2104   40.7762    8.9863 C.ar    1  UNL1       -0.0077
      5 C          11.5162   41.3487   10.3213 C.3     1  UNL1        0.0323
      6 C          12.0923   40.2704   11.2261 C.3     1  UNL1        0.0323
      7 C          13.4586   39.7289   10.8743 C.ar    1  UNL1       -0.0078
      8 C          14.0550   38.9538   11.8773 C.ar    1  UNL1       -0.0030
      9 C          15.3284   38.4074   11.7101 C.ar    1  UNL1       -0.0002
     10 C          16.0284   38.6284   10.5277 C.ar    1  UNL1        0.0013
     11 C          15.4493   39.3871    9.5104 C.ar    1  UNL1        0.0149
     12 C          14.1687   39.9501    9.6557 C.ar    1  UNL1        0.0541
     13 C          14.4168   41.6650    7.8317 C.2     1  UNL1        0.2344
     14 C           9.8875   40.5677    8.5849 C.ar    1  UNL1       -0.0017
     15 C           9.6186   40.0264    7.3243 C.ar    1  UNL1        0.0145
     16 O          15.6025   41.9005    8.1857 O.2     1  UNL1       -0.2742
     17 N          13.6170   40.6921    8.5454 N.am    1  UNL1       -0.2379
     18 C           9.2560   39.2495    4.3765 C.2     1  UNL1        0.4055
     19 O           8.4272   40.1672    4.6262 O.2     1  UNL1       -0.2261
     20 N          10.4335   39.0925    5.1768 N.am    1  UNL1       -0.2499
     21 H          11.1472   38.5206    4.8124 H       1  UNL1        0.1582
     22 C           9.8869   37.2620    3.0643 C.3     1  UNL1        0.2574
     23 O           9.0534   38.3893    3.2960 O.3     1  UNL1       -0.4304
     24 C          13.8326   42.4808    6.7213 C.3     1  UNL1        0.1034
     25 C          14.6471   43.7449    6.5321 C.3     1  UNL1        0.1045
     26 CL         14.9792   43.9768    4.8014 Cl      1  UNL1       -0.1132
@<TRIPOS>BOND
     1    22    23    1
     2    18    23    1
     3    18    20   am
     4     2     3   ar
     5     4    14   ar
     6     5     4    1
     7     5     6    1
     8     6     7    1
     9     8     9   ar
    10    10    11   ar
    11    12    17    1
    12    12     7   ar
    13    24    13    1
    14    24    25    1
    15    25    26    1
    16    15     1   ar
    17    20     1    1
    18    17    13   am
    19    17     3    1
    20    18    19    2
    21     1     2   ar
    22     3     4   ar
    23     7     8   ar
    24     9    10   ar
    25    11    12   ar
    26    13    16    2
    27    14    15   ar
    28    20    21    1
@<TRIPOS>MOLECULE
MolPort-045-901-900 CSSS00160240507 MCULE-5455986199 PubChem-13064304
 26 28 0 0 0
SMALL
GASTEIGER

@<TRIPOS>ATOM
      1 C          12.8205   42.2107    6.9856 C.ar    1  UNL1        0.0544
      2 C          11.5120   42.1423    6.4937 C.ar    1  UNL1        0.0297
      3 C          10.4663   41.6988    7.3141 C.ar    1  UNL1        0.0553
      4 C          10.7306   41.3334    8.6355 C.ar    1  UNL1       -0.0077
      5 C           9.6105   40.8731    9.4940 C.3     1  UNL1        0.0323
      6 C           8.7177   42.0507    9.8537 C.3     1  UNL1        0.0323
      7 C           7.9231   42.6838    8.7350 C.ar    1  UNL1       -0.0078
      8 C           6.9220   43.5678    9.1581 C.ar    1  UNL1       -0.0030
      9 C           6.0870   44.2092    8.2420 C.ar    1  UNL1       -0.0002
     10 C           6.2434   43.9757    6.8789 C.ar    1  UNL1        0.0013
     11 C           7.2414   43.1086    6.4339 C.ar    1  UNL1        0.0149
     12 C           8.0938   42.4486    7.3372 C.ar    1  UNL1        0.0541
     13 C           8.8403   40.6511    5.7432 C.2     1  UNL1        0.2344
     14 C          12.0334   41.4029    9.1380 C.ar    1  UNL1       -0.0017
     15 C          13.0755   41.8400    8.3150 C.ar    1  UNL1        0.0145
     16 O           7.6710   40.5400    5.2880 O.2     1  UNL1       -0.2742
     17 N           9.1293   41.5948    6.8022 N.am    1  UNL1       -0.2379
     18 C          15.1904   43.0474    6.5220 C.2     1  UNL1        0.4055
     19 O          15.6453   42.6750    7.6383 O.2     1  UNL1       -0.2261
     20 N          13.8572   42.7047    6.1266 N.am    1  UNL1       -0.2499
     21 H          13.6310   42.8192    5.1752 H       1  UNL1        0.1582
     22 C          17.3703   44.0071    5.8919 C.3     1  UNL1        0.2574
     23 O          15.9911   43.7753    5.6402 O.3     1  UNL1       -0.4304
     24 C           9.8935   39.7211    5.2278 C.3     1  UNL1        0.1034
     25 C           9.4916   38.2870    5.5089 C.3     1  UNL1        0.1045
     26 CL          9.0827   38.1178    7.2304 Cl      1  UNL1       -0.1132
@<TRIPOS>BOND
     1    22    23    1
     2    18    23    1
     3    18    20   am
     4     2     3   ar
     5     4    14   ar
     6     5     4    1
     7     5     6    1
     8     6     7    1
     9     8     9   ar
    10    10    11   ar
    11    12    17    1
    12    12     7   ar
    13    24    13    1
    14    24    25    1
    15    25    26    1
    16    15     1   ar
    17    20     1    1
    18    17    13   am
    19    17     3    1
    20    18    19    2
    21     1     2   ar
    22     3     4   ar
    23     7     8   ar
    24     9    10   ar
    25    11    12   ar
    26    13    16    2
    27    14    15   ar
    28    20    21    1
@<TRIPOS>MOLECULE
MolPort-045-901-900 CSSS00160240507 MCULE-5455986199 PubChem-13064304
 26 28 0 0 0
SMALL
GASTEIGER

@<TRIPOS>ATOM
      1 C           8.4572   40.7077    6.7727 C.ar    1  UNL1        0.0544
      2 C           8.0305   40.7225    8.1055 C.ar    1  UNL1        0.0297
      3 C           7.3608   41.8381    8.6253 C.ar    1  UNL1        0.0553
      4 C           7.1075   42.9382    7.8037 C.ar    1  UNL1       -0.0077
      5 C           6.3900   44.1090    8.3674 C.3     1  UNL1        0.0323
      6 C           4.9256   43.7614    8.5858 C.3     1  UNL1        0.0323
      7 C           4.6082   42.7427    9.6560 C.ar    1  UNL1       -0.0078
      8 C           3.2536   42.6652   10.0044 C.ar    1  UNL1       -0.0030
      9 C           2.8095   41.7900   10.9969 C.ar    1  UNL1       -0.0002
     10 C           3.7203   40.9722   11.6591 C.ar    1  UNL1        0.0013
     11 C           5.0725   41.0238   11.3203 C.ar    1  UNL1        0.0149
     12 C           5.5449   41.8986   10.3256 C.ar    1  UNL1        0.0541
     13 C           7.9552   41.8528   11.0452 C.2     1  UNL1        0.2344
     14 C           7.5251   42.9312    6.4695 C.ar    1  UNL1       -0.0017
     15 C           8.1985   41.8191    5.9556 C.ar    1  UNL1        0.0145
     16 O           7.6156   41.8895   12.2577 O.2     1  UNL1       -0.2742
     17 N           6.9527   41.8701   10.0012 N.am    1  UNL1       -0.2379
     18 C           9.1496   39.1139    4.8987 C.2     1  UNL1        0.4055
     19 O           8.8388   39.9120    3.9723 O.2     1  UNL1       -0.2261
     20 N           9.1065   39.5330    6.2676 N.am    1  UNL1       -0.2499
     21 H           9.5659   38.9606    6.9237 H       1  UNL1        0.1582
     22 C           9.9527   37.4306    3.2888 C.3     1  UNL1        0.2574
     23 O           9.5698   37.8163    4.6018 O.3     1  UNL1       -0.4304
     24 C           9.4147   41.8859   10.7161 C.3     1  UNL1        0.1034
     25 C          10.1948   41.1299   11.7731 C.3     1  UNL1        0.1045
     26 CL         11.6227   40.3801   11.0259 Cl      1  UNL1       -0.1132
@<TRIPOS>BOND
     1    22    23    1
     2    18    23    1
     3    18    20   am
     4     2     3   ar
     5     4    14   ar
     6     5     4    1
     7     5     6    1
     8     6     7    1
     9     8     9   ar
    10    10    11   ar
    11    12    17    1
    12    12     7   ar
    13    24    13    1
    14    24    25    1
    15    25    26    1
    16    15     1   ar
    17    20     1    1
    18    17    13   am
    19    17     3    1
    20    18    19    2
    21     1     2   ar
    22     3     4   ar
    23     7     8   ar
    24     9    10   ar
    25    11    12   ar
    26    13    16    2
    27    14    15   ar
    28    20    21    1
@<TRIPOS>MOLECULE
MolPort-045-901-900 CSSS00160240507 MCULE-5455986199 PubChem-13064304
 26 28 0 0 0
SMALL
GASTEIGER

@<TRIPOS>ATOM
      1 C          14.7317   41.8686    7.8658 C.ar    1  UNL1        0.0544
      2 C          13.3529   41.9712    7.6487 C.ar    1  UNL1        0.0297
      3 C          12.4610   41.1369    8.3355 C.ar    1  UNL1        0.0553
      4 C          12.9513   40.2043    9.2515 C.ar    1  UNL1       -0.0077
      5 C          11.9928   39.3332    9.9767 C.3     1  UNL1        0.0323
      6 C          11.2306   40.1505   11.0083 C.3     1  UNL1        0.0323
      7 C          10.2680   41.1942   10.4907 C.ar    1  UNL1       -0.0078
      8 C           9.3996   41.7175   11.4574 C.ar    1  UNL1       -0.0030
      9 C           8.4354   42.6705   11.1255 C.ar    1  UNL1       -0.0002
     10 C           8.3260   43.1188    9.8125 C.ar    1  UNL1        0.0013
     11 C           9.1882   42.6205    8.8356 C.ar    1  UNL1        0.0149
     12 C          10.1662   41.6582    9.1444 C.ar    1  UNL1        0.0541
     13 C          10.5303   40.8724    6.7824 C.2     1  UNL1        0.2344
     14 C          14.3265   40.0973    9.4794 C.ar    1  UNL1       -0.0017
     15 C          15.2143   40.9270    8.7879 C.ar    1  UNL1        0.0145
     16 O           9.2933   40.9275    6.5513 O.2     1  UNL1       -0.2742
     17 N          11.0490   41.2163    8.0894 N.am    1  UNL1       -0.2379
     18 C          15.2160   43.7875    6.2488 C.2     1  UNL1        0.4055
     19 O          14.0136   44.1633    6.1808 O.2     1  UNL1       -0.2261
     20 N          15.6096   42.7651    7.1714 N.am    1  UNL1       -0.2499
     21 H          16.5738   42.6687    7.3454 H       1  UNL1        0.1582
     22 C          17.5516   43.9827    5.4891 C.3     1  UNL1        0.2574
     23 O          16.1891   44.3841    5.4453 O.3     1  UNL1       -0.4304
     24 C          11.4310   40.3551    5.7049 C.3     1  UNL1        0.1034
     25 C          10.6533   40.2153    4.4115 C.3     1  UNL1        0.1045
     26 CL         10.9659   38.6133    3.7078 Cl      1  UNL1       -0.1132
@<TRIPOS>BOND
     1    22    23    1
     2    18    23    1
     3    18    20   am
     4     2     3   ar
     5     4    14   ar
     6     5     4    1
     7     5     6    1
     8     6     7    1
     9     8     9   ar
    10    10    11   ar
    11    12    17    1
    12    12     7   ar
    13    24    13    1
    14    24    25    1
    15    25    26    1
    16    15     1   ar
    17    20     1    1
    18    17    13   am
    19    17     3    1
    20    18    19    2
    21     1     2   ar
    22     3     4   ar
    23     7     8   ar
    24     9    10   ar
    25    11    12   ar
    26    13    16    2
    27    14    15   ar
    28    20    21    1
@<TRIPOS>MOLECULE
MolPort-045-901-900 CSSS00160240507 MCULE-5455986199 PubChem-13064304
 26 28 0 0 0
SMALL
GASTEIGER

@<TRIPOS>ATOM
      1 C          17.0221   34.4610    5.8005 C.ar    1  UNL1        0.0544
      2 C          16.5883   35.3753    6.7673 C.ar    1  UNL1        0.0297
      3 C          17.0259   35.2684    8.0941 C.ar    1  UNL1        0.0553
      4 C          17.9103   34.2487    8.4512 C.ar    1  UNL1       -0.0077
      5 C          18.3705   34.1538    9.8592 C.3     1  UNL1        0.0323
      6 C          19.3382   35.2870   10.1638 C.3     1  UNL1        0.0323
      7 C          18.7765   36.6898   10.1850 C.ar    1  UNL1       -0.0078
      8 C          19.6323   37.6527   10.7355 C.ar    1  UNL1       -0.0030
      9 C          19.2432   38.9882   10.8487 C.ar    1  UNL1       -0.0002
     10 C          17.9837   39.3837   10.4080 C.ar    1  UNL1        0.0013
     11 C          17.1193   38.4443    9.8454 C.ar    1  UNL1        0.0149
     12 C          17.4873   37.0924    9.7225 C.ar    1  UNL1        0.0541
     13 C          15.1518   36.1986    9.4475 C.2     1  UNL1        0.2344
     14 C          18.3536   33.3334    7.4919 C.ar    1  UNL1       -0.0017
     15 C          17.9102   33.4391    6.1702 C.ar    1  UNL1        0.0145
     16 O          14.7231   36.9888   10.3299 O.2     1  UNL1       -0.2742
     17 N          16.5557   36.1837    9.0949 N.am    1  UNL1       -0.2379
     18 C          17.4210   34.8061    3.2999 C.2     1  UNL1        0.4055
     19 O          18.6563   34.5576    3.3632 O.2     1  UNL1       -0.2261
     20 N          16.5811   34.6258    4.4459 N.am    1  UNL1       -0.2499
     21 H          15.6093   34.6138    4.2889 H       1  UNL1        0.1582
     22 C          17.5737   35.9960    1.1480 C.3     1  UNL1        0.2574
     23 O          16.8468   35.2332    2.1014 O.3     1  UNL1       -0.4304
     24 C          14.1934   35.2186    8.8468 C.3     1  UNL1        0.1034
     25 C          13.2660   34.6860    9.9208 C.3     1  UNL1        0.1045
     26 CL         12.0611   35.9283   10.3260 Cl      1  UNL1       -0.1132
@<TRIPOS>BOND
     1    22    23    1
     2    18    23    1
     3    18    20   am
     4     2     3   ar
     5     4    14   ar
     6     5     4    1
     7     5     6    1
     8     6     7    1
     9     8     9   ar
    10    10    11   ar
    11    12    17    1
    12    12     7   ar
    13    24    13    1
    14    24    25    1
    15    25    26    1
    16    15     1   ar
    17    20     1    1
    18    17    13   am
    19    17     3    1
    20    18    19    2
    21     1     2   ar
    22     3     4   ar
    23     7     8   ar
    24     9    10   ar
    25    11    12   ar
    26    13    16    2
    27    14    15   ar
    28    20    21    1
@<TRIPOS>MOLECULE
MolPort-045-901-900 CSSS00160240507 MCULE-5455986199 PubChem-13064304
 26 28 0 0 0
SMALL
GASTEIGER

@<TRIPOS>ATOM
      1 C          14.8384   39.0271    9.8851 C.ar    1  UNL1        0.0544
      2 C          14.2558   40.2680    9.6032 C.ar    1  UNL1        0.0297
      3 C          13.0558   40.3431    8.8837 C.ar    1  UNL1        0.0553
      4 C          12.4313   39.1702    8.4550 C.ar    1  UNL1       -0.0077
      5 C          11.1565   39.2664    7.7007 C.3     1  UNL1        0.0323
      6 C          10.0330   39.6854    8.6363 C.3     1  UNL1        0.0323
      7 C          10.0885   41.0862    9.2007 C.ar    1  UNL1       -0.0078
      8 C           8.9075   41.5120    9.8223 C.ar    1  UNL1       -0.0030
      9 C           8.7964   42.7920   10.3677 C.ar    1  UNL1       -0.0002
     10 C           9.8735   43.6707   10.3004 C.ar    1  UNL1        0.0013
     11 C          11.0636   43.2641    9.6967 C.ar    1  UNL1        0.0149
     12 C          11.1995   41.9806    9.1380 C.ar    1  UNL1        0.0541
     13 C          13.1804   42.5244    7.6856 C.2     1  UNL1        0.2344
     14 C          13.0025   37.9254    8.7359 C.ar    1  UNL1       -0.0017
     15 C          14.2031   37.8543    9.4487 C.ar    1  UNL1        0.0145
     16 O          12.6808   43.6414    7.3864 O.2     1  UNL1       -0.2742
     17 N          12.4739   41.6156    8.5633 N.am    1  UNL1       -0.2379
     18 C          17.3289   39.4769   10.2411 C.2     1  UNL1        0.4055
     19 O          17.4337   40.2402    9.2421 O.2     1  UNL1       -0.2261
     20 N          16.0473   38.9900   10.6557 N.am    1  UNL1       -0.2499
     21 H          15.9910   38.5923   11.5546 H       1  UNL1        0.1582
     22 C          19.6525   38.6656   10.3529 C.3     1  UNL1        0.2574
     23 O          18.4590   39.1180   10.9776 O.3     1  UNL1       -0.4304
     24 C          14.4702   42.1279    7.0382 C.3     1  UNL1        0.1034
     25 C          15.3171   43.3598    6.7884 C.3     1  UNL1        0.1045
     26 CL         15.0638   43.9190    5.1203 Cl      1  UNL1       -0.1132
@<TRIPOS>BOND
     1    22    23    1
     2    18    23    1
     3    18    20   am
     4     2     3   ar
     5     4    14   ar
     6     5     4    1
     7     5     6    1
     8     6     7    1
     9     8     9   ar
    10    10    11   ar
    11    12    17    1
    12    12     7   ar
    13    24    13    1
    14    24    25    1
    15    25    26    1
    16    15     1   ar
    17    20     1    1
    18    17    13   am
    19    17     3    1
    20    18    19    2
    21     1     2   ar
    22     3     4   ar
    23     7     8   ar
    24     9    10   ar
    25    11    12   ar
    26    13    16    2
    27    14    15   ar
    28    20    21    1
