@<TRIPOS>MOLECULE
MolPort-007-967-225 ChemDiv-L497-0048 MCULE-3085249082 PubChem-46385449 ZINC000033129559 ZINC33129559
 26 28 0 0 0
SMALL
GASTEIGER

@<TRIPOS>ATOM
      1 C          15.2841   35.2535    6.4140 C.3     1  UNL1        0.0395
      2 C          15.7136   36.0124    7.6209 C.ar    1  UNL1        0.0224
      3 C          14.9723   36.9625    8.3296 C.ar    1  UNL1        0.0544
      4 C          15.5825   37.3810    9.5186 C.ar    1  UNL1        0.0414
      5 C          16.8169   36.7773    9.7141 C.ar    1  UNL1        0.1526
      6 S          17.1368   35.7073    8.4590 S.2     1  UNL1       -0.0703
      7 C          12.9302   38.4546    8.6383 C.2     1  UNL1        0.2495
      8 N          13.6685   37.4292    7.9617 N.am    1  UNL1       -0.2802
      9 O          13.2637   38.8141    9.8002 O.2     1  UNL1       -0.2698
     10 H          13.2442   37.0103    7.1784 H       1  UNL1        0.1552
     11 C          11.7457   39.0510    7.9966 C.ar    1  UNL1        0.0537
     12 C          10.5178   39.0901    8.6731 C.ar    1  UNL1        0.0052
     13 C           9.3927   39.6538    8.0640 C.ar    1  UNL1        0.0104
     14 C           9.4873   40.1823    6.7736 C.ar    1  UNL1        0.0685
     15 C          10.7070   40.1469    6.0923 C.ar    1  UNL1        0.0104
     16 C          11.8321   39.5831    6.7013 C.ar    1  UNL1        0.0052
     17 C           8.3319   40.7608    6.1482 C.1     1  UNL1        0.1004
     18 N           7.4005   41.2274    5.6441 N.1     1  UNL1       -0.1908
     19 O          18.9303   35.9723   11.1189 O.2     1  UNL1       -0.1523
     20 O          17.0457   36.9295   12.3528 O.2     1  UNL1       -0.1523
     21 S          17.8640   37.0338   11.0962 S.O2    1  UNL1        0.0690
     22 C          19.1443   38.7578    9.6543 C.3     1  UNL1        0.0959
     23 C          18.7180   40.1051    9.1274 C.3     1  UNL1        0.0206
     24 C          17.4224   40.3759    9.8350 C.3     1  UNL1        0.0206
     25 C          17.5293   39.6039   11.1321 C.3     1  UNL1        0.0959
     26 N          18.5899   38.6076   10.9953 N.3     1  UNL1       -0.1551
@<TRIPOS>BOND
     1     1     2    1
     2     2     6   ar
     3     3     8    1
     4     3     4   ar
     5     7    11    1
     6    12    13   ar
     7    14    15   ar
     8    14    17    1
     9    16    11   ar
    10     5     6   ar
    11    22    26    1
    12    22    23    1
    13    23    24    1
    14    24    25    1
    15    25    26    1
    16     8     7   am
    17    21     5    1
    18    21    26    1
    19     2     3   ar
    20     7     9    2
    21    11    12   ar
    22    13    14   ar
    23    15    16   ar
    24     4     5   ar
    25    21    19    2
    26    21    20    2
    27    17    18    3
    28     8    10    1
@<TRIPOS>MOLECULE
MolPort-007-967-225 ChemDiv-L497-0048 MCULE-3085249082 PubChem-46385449 ZINC000033129559 ZINC33129559
 26 28 0 0 0
SMALL
GASTEIGER

@<TRIPOS>ATOM
      1 C           9.2151   36.8704    8.4376 C.3     1  UNL1        0.0395
      2 C           9.5772   38.1246    7.7213 C.ar    1  UNL1        0.0224
      3 C           9.8362   39.3763    8.2876 C.ar    1  UNL1        0.0544
      4 C          10.3139   40.3215    7.3712 C.ar    1  UNL1        0.0414
      5 C          10.3930   39.8089    6.0838 C.ar    1  UNL1        0.1526
      6 S           9.9206   38.1967    6.0788 S.2     1  UNL1       -0.0703
      7 C          10.0241   40.9549   10.2786 C.2     1  UNL1        0.2495
      8 N           9.7239   39.6869    9.6818 N.am    1  UNL1       -0.2802
      9 O          10.7011   41.8095    9.6447 O.2     1  UNL1       -0.2698
     10 H           9.4145   38.9689   10.2801 H       1  UNL1        0.1552
     11 C           9.5877   41.2392   11.6567 C.ar    1  UNL1        0.0537
     12 C           8.3466   41.8471   11.8957 C.ar    1  UNL1        0.0052
     13 C           7.9327   42.1193   13.2030 C.ar    1  UNL1        0.0104
     14 C           8.7572   41.7858   14.2812 C.ar    1  UNL1        0.0685
     15 C           9.9956   41.1803   14.0518 C.ar    1  UNL1        0.0104
     16 C          10.4096   40.9081   12.7445 C.ar    1  UNL1        0.0052
     17 C           8.3322   42.0658   15.6234 C.1     1  UNL1        0.1004
     18 N           7.9898   42.2917   16.7055 N.1     1  UNL1       -0.1908
     19 O          12.3685   41.1663    4.9251 O.2     1  UNL1       -0.1523
     20 O          10.0743   41.8734    4.4484 O.2     1  UNL1       -0.1523
     21 S          10.9649   40.6842    4.6769 S.O2    1  UNL1        0.0690
     22 C          11.2950   38.3023    3.7239 C.3     1  UNL1        0.0959
     23 C          10.2996   37.3361    3.1323 C.3     1  UNL1        0.0206
     24 C           9.0515   38.1547    2.9752 C.3     1  UNL1        0.0206
     25 C           9.5467   39.5751    2.8120 C.3     1  UNL1        0.0959
     26 N          10.9273   39.6447    3.2869 N.3     1  UNL1       -0.1551
@<TRIPOS>BOND
     1     1     2    1
     2     2     6   ar
     3     3     8    1
     4     3     4   ar
     5     7    11    1
     6    12    13   ar
     7    14    15   ar
     8    14    17    1
     9    16    11   ar
    10     5     6   ar
    11    22    26    1
    12    22    23    1
    13    23    24    1
    14    24    25    1
    15    25    26    1
    16     8     7   am
    17    21     5    1
    18    21    26    1
    19     2     3   ar
    20     7     9    2
    21    11    12   ar
    22    13    14   ar
    23    15    16   ar
    24     4     5   ar
    25    21    19    2
    26    21    20    2
    27    17    18    3
    28     8    10    1
@<TRIPOS>MOLECULE
MolPort-007-967-225 ChemDiv-L497-0048 MCULE-3085249082 PubChem-46385449 ZINC000033129559 ZINC33129559
 26 28 0 0 0
SMALL
GASTEIGER

@<TRIPOS>ATOM
      1 C           7.3553   41.5147    5.4214 C.3     1  UNL1        0.0395
      2 C           6.9048   41.8404    6.8028 C.ar    1  UNL1        0.0224
      3 C           7.7077   42.1856    7.8940 C.ar    1  UNL1        0.0544
      4 C           6.9828   42.5989    9.0186 C.ar    1  UNL1        0.0414
      5 C           5.6121   42.5414    8.8081 C.ar    1  UNL1        0.1526
      6 S           5.2941   42.0276    7.2405 S.2     1  UNL1       -0.0703
      7 C           9.9785   42.3166    9.0418 C.2     1  UNL1        0.2495
      8 N           9.1401   42.2149    7.8838 N.am    1  UNL1       -0.2802
      9 O           9.4939   42.6908   10.1444 O.2     1  UNL1       -0.2698
     10 H           9.5860   42.1605    7.0078 H       1  UNL1        0.1552
     11 C          11.4206   42.0365    8.9308 C.ar    1  UNL1        0.0537
     12 C          11.9666   40.8872    9.5207 C.ar    1  UNL1        0.0052
     13 C          13.3353   40.6218    9.4177 C.ar    1  UNL1        0.0104
     14 C          14.1684   41.5042    8.7243 C.ar    1  UNL1        0.0685
     15 C          13.6326   42.6521    8.1340 C.ar    1  UNL1        0.0104
     16 C          12.2638   42.9175    8.2370 C.ar    1  UNL1        0.0052
     17 C          15.5739   41.2318    8.6191 C.1     1  UNL1        0.1004
     18 N          16.7070   41.0124    8.5343 N.1     1  UNL1       -0.1908
     19 O           3.7309   44.2802    9.5328 O.2     1  UNL1       -0.1523
     20 O           5.0432   43.2234   11.3080 O.2     1  UNL1       -0.1523
     21 S           4.3865   42.9999    9.9744 S.O2    1  UNL1        0.0690
     22 C           3.8759   40.4671    9.8546 C.3     1  UNL1        0.0959
     23 C           3.4520   39.5001   10.9315 C.3     1  UNL1        0.0206
     24 C           3.1356   40.3818   12.1042 C.3     1  UNL1        0.0206
     25 C           2.7295   41.7027   11.4877 C.3     1  UNL1        0.0959
     26 N           3.2028   41.7368   10.1053 N.3     1  UNL1       -0.1551
@<TRIPOS>BOND
     1     1     2    1
     2     2     6   ar
     3     3     8    1
     4     3     4   ar
     5     7    11    1
     6    12    13   ar
     7    14    15   ar
     8    14    17    1
     9    16    11   ar
    10     5     6   ar
    11    22    26    1
    12    22    23    1
    13    23    24    1
    14    24    25    1
    15    25    26    1
    16     8     7   am
    17    21     5    1
    18    21    26    1
    19     2     3   ar
    20     7     9    2
    21    11    12   ar
    22    13    14   ar
    23    15    16   ar
    24     4     5   ar
    25    21    19    2
    26    21    20    2
    27    17    18    3
    28     8    10    1
@<TRIPOS>MOLECULE
MolPort-007-967-225 ChemDiv-L497-0048 MCULE-3085249082 PubChem-46385449 ZINC000033129559 ZINC33129559
 26 28 0 0 0
SMALL
GASTEIGER

@<TRIPOS>ATOM
      1 C          11.9568   41.7696    7.7170 C.3     1  UNL1        0.0395
      2 C          12.5003   40.9975    8.8684 C.ar    1  UNL1        0.0224
      3 C          11.7716   40.3360    9.8614 C.ar    1  UNL1        0.0544
      4 C          12.5620   39.5576   10.7162 C.ar    1  UNL1        0.0414
      5 C          13.9117   39.6437   10.4043 C.ar    1  UNL1        0.1526
      6 S          14.1282   40.6336    9.0642 S.2     1  UNL1       -0.0703
      7 C           9.5544   41.4757   10.3869 C.2     1  UNL1        0.2495
      8 N          10.3439   40.3506    9.9807 N.am    1  UNL1       -0.2802
      9 O          10.0988   42.4582   10.9604 O.2     1  UNL1       -0.2698
     10 H           9.8650   39.5178    9.7656 H       1  UNL1        0.1552
     11 C           8.0953   41.4602   10.1836 C.ar    1  UNL1        0.0537
     12 C           7.5612   41.3689    8.8900 C.ar    1  UNL1        0.0052
     13 C           6.1767   41.3564    8.6960 C.ar    1  UNL1        0.0104
     14 C           5.3161   41.4356    9.7945 C.ar    1  UNL1        0.0685
     15 C           5.8400   41.5274   11.0868 C.ar    1  UNL1        0.0104
     16 C           7.2245   41.5399   11.2808 C.ar    1  UNL1        0.0052
     17 C           3.8946   41.4232    9.5951 C.1     1  UNL1        0.1004
     18 N           2.7485   41.4135    9.4343 N.1     1  UNL1       -0.1908
     19 O          14.9650   38.8594   12.7201 O.2     1  UNL1       -0.1523
     20 O          16.5080   39.4674   10.9201 O.2     1  UNL1       -0.1523
     21 S          15.2009   38.7954   11.2354 S.O2    1  UNL1        0.0690
     22 C          13.9047   36.5894   10.8556 C.3     1  UNL1        0.0959
     23 C          13.5647   35.8588    9.5808 C.3     1  UNL1        0.0206
     24 C          14.3691   36.5696    8.5318 C.3     1  UNL1        0.0206
     25 C          15.5582   37.1311    9.2805 C.3     1  UNL1        0.0959
     26 N          15.2469   37.1418   10.7086 N.3     1  UNL1       -0.1551
@<TRIPOS>BOND
     1     1     2    1
     2     2     6   ar
     3     3     8    1
     4     3     4   ar
     5     7    11    1
     6    12    13   ar
     7    14    15   ar
     8    14    17    1
     9    16    11   ar
    10     5     6   ar
    11    22    26    1
    12    22    23    1
    13    23    24    1
    14    24    25    1
    15    25    26    1
    16     8     7   am
    17    21     5    1
    18    21    26    1
    19     2     3   ar
    20     7     9    2
    21    11    12   ar
    22    13    14   ar
    23    15    16   ar
    24     4     5   ar
    25    21    19    2
    26    21    20    2
    27    17    18    3
    28     8    10    1
@<TRIPOS>MOLECULE
MolPort-007-967-225 ChemDiv-L497-0048 MCULE-3085249082 PubChem-46385449 ZINC000033129559 ZINC33129559
 26 28 0 0 0
SMALL
GASTEIGER

@<TRIPOS>ATOM
      1 C           9.6607   38.2083    7.5938 C.3     1  UNL1        0.0395
      2 C          10.7013   38.7157    8.5303 C.ar    1  UNL1        0.0224
      3 C          10.6144   39.8347    9.3640 C.ar    1  UNL1        0.0544
      4 C          11.6902   39.9609   10.2517 C.ar    1  UNL1        0.0414
      5 C          12.6302   38.9541   10.0815 C.ar    1  UNL1        0.1526
      6 S          12.1240   37.8944    8.8800 S.2     1  UNL1       -0.0703
      7 C           9.2049   41.7308    8.4103 C.2     1  UNL1        0.2495
      8 N           9.5088   40.7450    9.4053 N.am    1  UNL1       -0.2802
      9 O          10.0764   42.0649    7.5621 O.2     1  UNL1       -0.2698
     10 H           8.9073   40.6887   10.1826 H       1  UNL1        0.1552
     11 C           7.8899   42.3949    8.4126 C.ar    1  UNL1        0.0537
     12 C           6.9009   42.0050    9.3274 C.ar    1  UNL1        0.0052
     13 C           5.6519   42.6332    9.3288 C.ar    1  UNL1        0.0104
     14 C           5.3826   43.6558    8.4149 C.ar    1  UNL1        0.0685
     15 C           6.3623   44.0500    7.4996 C.ar    1  UNL1        0.0104
     16 C           7.6113   43.4218    7.4981 C.ar    1  UNL1        0.0052
     17 C           4.1000   44.3004    8.4162 C.1     1  UNL1        0.1004
     18 N           3.0660   44.8201    8.4175 N.1     1  UNL1       -0.1908
     19 O          13.8654   39.2790   12.4173 O.2     1  UNL1       -0.1523
     20 O          15.1919   39.5752   10.3819 O.2     1  UNL1       -0.1523
     21 S          14.0978   38.7670   11.0216 S.O2    1  UNL1        0.0690
     22 C          13.3615   36.2986   10.7861 C.3     1  UNL1        0.0959
     23 C          13.7327   35.2582    9.7594 C.3     1  UNL1        0.0206
     24 C          14.8567   35.8923    8.9931 C.3     1  UNL1        0.0206
     25 C          15.4942   36.8498    9.9762 C.3     1  UNL1        0.0959
     26 N          14.5528   37.0923   11.0676 N.3     1  UNL1       -0.1551
@<TRIPOS>BOND
     1     1     2    1
     2     2     6   ar
     3     3     8    1
     4     3     4   ar
     5     7    11    1
     6    12    13   ar
     7    14    15   ar
     8    14    17    1
     9    16    11   ar
    10     5     6   ar
    11    22    26    1
    12    22    23    1
    13    23    24    1
    14    24    25    1
    15    25    26    1
    16     8     7   am
    17    21     5    1
    18    21    26    1
    19     2     3   ar
    20     7     9    2
    21    11    12   ar
    22    13    14   ar
    23    15    16   ar
    24     4     5   ar
    25    21    19    2
    26    21    20    2
    27    17    18    3
    28     8    10    1
@<TRIPOS>MOLECULE
MolPort-007-967-225 ChemDiv-L497-0048 MCULE-3085249082 PubChem-46385449 ZINC000033129559 ZINC33129559
 26 28 0 0 0
SMALL
GASTEIGER

@<TRIPOS>ATOM
      1 C          10.7445   37.0512    9.8069 C.3     1  UNL1        0.0395
      2 C          12.0565   37.6979   10.0859 C.ar    1  UNL1        0.0224
      3 C          12.3105   39.0649   10.2322 C.ar    1  UNL1        0.0544
      4 C          13.6138   39.3538   10.6554 C.ar    1  UNL1        0.0414
      5 C          14.3818   38.2074   10.8050 C.ar    1  UNL1        0.1526
      6 S          13.4559   36.8484   10.4612 S.2     1  UNL1       -0.0703
      7 C          10.8349   40.5755    8.8067 C.2     1  UNL1        0.2495
      8 N          11.3389   40.1042   10.0628 N.am    1  UNL1       -0.2802
      9 O          11.4440   40.3025    7.7366 O.2     1  UNL1       -0.2698
     10 H          10.9879   40.5304   10.8780 H       1  UNL1        0.1552
     11 C           9.6332   41.4271    8.7708 C.ar    1  UNL1        0.0537
     12 C           9.2093   42.0039    7.5648 C.ar    1  UNL1        0.0052
     13 C           8.0704   42.8139    7.5303 C.ar    1  UNL1        0.0104
     14 C           7.3471   43.0535    8.7020 C.ar    1  UNL1        0.0685
     15 C           7.7630   42.4831    9.9081 C.ar    1  UNL1        0.0104
     16 C           8.9019   41.6731    9.9427 C.ar    1  UNL1        0.0052
     17 C           6.1780   43.8856    8.6665 C.1     1  UNL1        0.1004
     18 N           5.2355   44.5566    8.6382 N.1     1  UNL1       -0.1908
     19 O          16.2916   36.9104   12.1309 O.2     1  UNL1       -0.1523
     20 O          16.3079   39.3561   12.2222 O.2     1  UNL1       -0.1523
     21 S          16.0508   38.1671   11.3393 S.O2    1  UNL1        0.0690
     22 C          18.1067   39.2511   10.2042 C.3     1  UNL1        0.0959
     23 C          19.4581   38.6736    9.8656 C.3     1  UNL1        0.0206
     24 C          19.2936   37.2021   10.1113 C.3     1  UNL1        0.0206
     25 C          17.8190   36.9429    9.8924 C.3     1  UNL1        0.0959
     26 N          17.1065   38.2171    9.9620 N.3     1  UNL1       -0.1551
@<TRIPOS>BOND
     1     1     2    1
     2     2     6   ar
     3     3     8    1
     4     3     4   ar
     5     7    11    1
     6    12    13   ar
     7    14    15   ar
     8    14    17    1
     9    16    11   ar
    10     5     6   ar
    11    22    26    1
    12    22    23    1
    13    23    24    1
    14    24    25    1
    15    25    26    1
    16     8     7   am
    17    21     5    1
    18    21    26    1
    19     2     3   ar
    20     7     9    2
    21    11    12   ar
    22    13    14   ar
    23    15    16   ar
    24     4     5   ar
    25    21    19    2
    26    21    20    2
    27    17    18    3
    28     8    10    1
@<TRIPOS>MOLECULE
MolPort-007-967-225 ChemDiv-L497-0048 MCULE-3085249082 PubChem-46385449 ZINC000033129559 ZINC33129559
 26 28 0 0 0
SMALL
GASTEIGER

@<TRIPOS>ATOM
      1 C          11.9345   42.0568    8.0747 C.3     1  UNL1        0.0395
      2 C          12.4352   41.0429    9.0434 C.ar    1  UNL1        0.0224
      3 C          11.6706   40.2145    9.8702 C.ar    1  UNL1        0.0544
      4 C          12.4223   39.2477   10.5496 C.ar    1  UNL1        0.0414
      5 C          13.7787   39.3499   10.2734 C.ar    1  UNL1        0.1526
      6 S          14.0474   40.5896    9.1718 S.2     1  UNL1       -0.0703
      7 C           9.4759   41.3565   10.4786 C.2     1  UNL1        0.2495
      8 N          10.2425   40.2536    9.9786 N.am    1  UNL1       -0.2802
      9 O          10.0376   42.2693   11.1434 O.2     1  UNL1       -0.2698
     10 H           9.7461   39.4558    9.6848 H       1  UNL1        0.1552
     11 C           8.0191   41.3956   10.2627 C.ar    1  UNL1        0.0537
     12 C           7.4939   41.3473    8.9631 C.ar    1  UNL1        0.0052
     13 C           6.1117   41.3867    8.7572 C.ar    1  UNL1        0.0104
     14 C           5.2443   41.4750    9.8496 C.ar    1  UNL1        0.0685
     15 C           5.7593   41.5242   11.1478 C.ar    1  UNL1        0.0104
     16 C           7.1415   41.4849   11.3538 C.ar    1  UNL1        0.0052
     17 C           3.8251   41.5158    9.6379 C.1     1  UNL1        0.1004
     18 N           2.6810   41.5486    9.4670 N.1     1  UNL1       -0.1908
     19 O          14.5408   36.8785   10.9048 O.2     1  UNL1       -0.1523
     20 O          15.3145   38.7053   12.3383 O.2     1  UNL1       -0.1523
     21 S          15.0271   38.3024   10.9189 S.O2    1  UNL1        0.0690
     22 C          17.3340   39.4303   10.6087 C.3     1  UNL1        0.0959
     23 C          18.7249   38.8498   10.6640 C.3     1  UNL1        0.0206
     24 C          18.4958   37.3669   10.7005 C.3     1  UNL1        0.0206
     25 C          17.1695   37.1699    9.9992 C.3     1  UNL1        0.0959
     26 N          16.4675   38.4513    9.9615 N.3     1  UNL1       -0.1551
@<TRIPOS>BOND
     1     1     2    1
     2     2     6   ar
     3     3     8    1
     4     3     4   ar
     5     7    11    1
     6    12    13   ar
     7    14    15   ar
     8    14    17    1
     9    16    11   ar
    10     5     6   ar
    11    22    26    1
    12    22    23    1
    13    23    24    1
    14    24    25    1
    15    25    26    1
    16     8     7   am
    17    21     5    1
    18    21    26    1
    19     2     3   ar
    20     7     9    2
    21    11    12   ar
    22    13    14   ar
    23    15    16   ar
    24     4     5   ar
    25    21    19    2
    26    21    20    2
    27    17    18    3
    28     8    10    1
@<TRIPOS>MOLECULE
MolPort-007-967-225 ChemDiv-L497-0048 MCULE-3085249082 PubChem-46385449 ZINC000033129559 ZINC33129559
 26 28 0 0 0
SMALL
GASTEIGER

@<TRIPOS>ATOM
      1 C          11.2495   35.6669   10.9925 C.3     1  UNL1        0.0395
      2 C          12.4075   36.0571   10.1416 C.ar    1  UNL1        0.0224
      3 C          12.6660   37.3166    9.5925 C.ar    1  UNL1        0.0544
      4 C          13.9199   37.4164    8.9769 C.ar    1  UNL1        0.0414
      5 C          14.6211   36.2193    9.0203 C.ar    1  UNL1        0.1526
      6 S          13.7264   35.0606    9.8445 S.2     1  UNL1       -0.0703
      7 C          12.0359   39.6032   10.5228 C.2     1  UNL1        0.2495
      8 N          11.8007   38.4535    9.7001 N.am    1  UNL1       -0.2802
      9 O          12.8920   39.5564   11.4478 O.2     1  UNL1       -0.2698
     10 H          10.9752   38.4441    9.1637 H       1  UNL1        0.1552
     11 C          11.2368   40.8247   10.3230 C.ar    1  UNL1        0.0537
     12 C          10.3315   41.2479   11.3070 C.ar    1  UNL1        0.0052
     13 C           9.5711   42.4056   11.1172 C.ar    1  UNL1        0.0104
     14 C           9.7101   43.1485    9.9415 C.ar    1  UNL1        0.0685
     15 C          10.6095   42.7334    8.9556 C.ar    1  UNL1        0.0104
     16 C          11.3699   41.5757    9.1454 C.ar    1  UNL1        0.0052
     17 C           8.9290   44.3369    9.7466 C.1     1  UNL1        0.1004
     18 N           8.2995   45.2953    9.5894 N.1     1  UNL1       -0.1908
     19 O          17.1373   37.0698    8.8390 O.2     1  UNL1       -0.1523
     20 O          16.1619   35.9857    6.8733 O.2     1  UNL1       -0.1523
     21 S          16.2304   35.9625    8.3748 S.O2    1  UNL1        0.0690
     22 C          16.4838   33.4310    7.9081 C.3     1  UNL1        0.0959
     23 C          17.7130   32.6040    7.6262 C.3     1  UNL1        0.0206
     24 C          18.8511   33.5381    7.9174 C.3     1  UNL1        0.0206
     25 C          18.2970   34.5043    8.9417 C.3     1  UNL1        0.0959
     26 N          16.8377   34.4278    8.9128 N.3     1  UNL1       -0.1551
@<TRIPOS>BOND
     1     1     2    1
     2     2     6   ar
     3     3     8    1
     4     3     4   ar
     5     7    11    1
     6    12    13   ar
     7    14    15   ar
     8    14    17    1
     9    16    11   ar
    10     5     6   ar
    11    22    26    1
    12    22    23    1
    13    23    24    1
    14    24    25    1
    15    25    26    1
    16     8     7   am
    17    21     5    1
    18    21    26    1
    19     2     3   ar
    20     7     9    2
    21    11    12   ar
    22    13    14   ar
    23    15    16   ar
    24     4     5   ar
    25    21    19    2
    26    21    20    2
    27    17    18    3
    28     8    10    1
@<TRIPOS>MOLECULE
MolPort-007-967-225 ChemDiv-L497-0048 MCULE-3085249082 PubChem-46385449 ZINC000033129559 ZINC33129559
 26 28 0 0 0
SMALL
GASTEIGER

@<TRIPOS>ATOM
      1 C          12.9501   41.9709    7.3682 C.3     1  UNL1        0.0395
      2 C          13.2658   41.1614    8.5775 C.ar    1  UNL1        0.0224
      3 C          12.3568   40.5944    9.4756 C.ar    1  UNL1        0.0544
      4 C          12.9511   39.7485   10.4203 C.ar    1  UNL1        0.0414
      5 C          14.3300   39.6871   10.2738 C.ar    1  UNL1        0.1526
      6 S          14.8103   40.6301    8.9690 S.2     1  UNL1       -0.0703
      7 C          10.1244   41.3352   10.4550 C.2     1  UNL1        0.2495
      8 N          10.9348   40.7615    9.4214 N.am    1  UNL1       -0.2802
      9 O          10.5834   41.4632   11.6227 O.2     1  UNL1       -0.2698
     10 H          10.4758   40.4567    8.6055 H       1  UNL1        0.1552
     11 C           8.7336   41.7254   10.1657 C.ar    1  UNL1        0.0537
     12 C           7.7184   41.4748   11.1003 C.ar    1  UNL1        0.0052
     13 C           6.3979   41.8427   10.8256 C.ar    1  UNL1        0.0104
     14 C           6.0828   42.4637    9.6138 C.ar    1  UNL1        0.0685
     15 C           7.0883   42.7166    8.6767 C.ar    1  UNL1        0.0104
     16 C           8.4088   42.3486    8.9514 C.ar    1  UNL1        0.0052
     17 C           4.7269   42.8411    9.3318 C.1     1  UNL1        0.1004
     18 N           3.6337   43.1456    9.1045 N.1     1  UNL1       -0.1908
     19 O          14.9967   38.8131   12.6985 O.2     1  UNL1       -0.1523
     20 O          16.8090   39.2555   11.1142 O.2     1  UNL1       -0.1523
     21 S          15.4121   38.7186   11.2554 S.O2    1  UNL1        0.0690
     22 C          13.9799   36.6064   10.8338 C.3     1  UNL1        0.0959
     23 C          13.6267   35.9015    9.5482 C.3     1  UNL1        0.0206
     24 C          14.5067   36.5566    8.5239 C.3     1  UNL1        0.0206
     25 C          15.7098   37.0354    9.3068 C.3     1  UNL1        0.0959
     26 N          15.3602   37.0662   10.7257 N.3     1  UNL1       -0.1551
@<TRIPOS>BOND
     1     1     2    1
     2     2     6   ar
     3     3     8    1
     4     3     4   ar
     5     7    11    1
     6    12    13   ar
     7    14    15   ar
     8    14    17    1
     9    16    11   ar
    10     5     6   ar
    11    22    26    1
    12    22    23    1
    13    23    24    1
    14    24    25    1
    15    25    26    1
    16     8     7   am
    17    21     5    1
    18    21    26    1
    19     2     3   ar
    20     7     9    2
    21    11    12   ar
    22    13    14   ar
    23    15    16   ar
    24     4     5   ar
    25    21    19    2
    26    21    20    2
    27    17    18    3
    28     8    10    1
@<TRIPOS>MOLECULE
MolPort-007-967-225 ChemDiv-L497-0048 MCULE-3085249082 PubChem-46385449 ZINC000033129559 ZINC33129559
 26 28 0 0 0
SMALL
GASTEIGER

@<TRIPOS>ATOM
      1 C           9.9487   37.0601    9.4798 C.3     1  UNL1        0.0395
      2 C           9.9951   38.2143    8.5401 C.ar    1  UNL1        0.0224
      3 C          11.0763   39.0686    8.3041 C.ar    1  UNL1        0.0544
      4 C          10.8706   39.9577    7.2419 C.ar    1  UNL1        0.0414
      5 C           9.6119   39.8137    6.6750 C.ar    1  UNL1        0.1526
      6 S           8.7750   38.5766    7.4443 S.2     1  UNL1       -0.0703
      7 C          13.3622   38.0491    8.7807 C.2     1  UNL1        0.2495
      8 N          12.3295   39.0191    8.9970 N.am    1  UNL1       -0.2802
      9 O          13.1081   36.9801    8.1616 O.2     1  UNL1       -0.2698
     10 H          12.4951   39.7096    9.6790 H       1  UNL1        0.1552
     11 C          14.7098   38.2767    9.3308 C.ar    1  UNL1        0.0537
     12 C          15.1949   39.5817    9.5001 C.ar    1  UNL1        0.0052
     13 C          16.4745   39.7984   10.0199 C.ar    1  UNL1        0.0104
     14 C          17.2786   38.7115   10.3740 C.ar    1  UNL1        0.0685
     15 C          16.8032   37.4079   10.2080 C.ar    1  UNL1        0.0104
     16 C          15.5236   37.1911    9.6881 C.ar    1  UNL1        0.0052
     17 C          18.5926   38.9342   10.9073 C.1     1  UNL1        0.1004
     18 N          19.6521   39.1137   11.3371 N.1     1  UNL1       -0.1908
     19 O           9.4015   42.1761    5.4658 O.2     1  UNL1       -0.1523
     20 O           7.5009   40.6431    5.2988 O.2     1  UNL1       -0.1523
     21 S           9.0013   40.7337    5.3136 S.O2    1  UNL1        0.0690
     22 C          11.0585   39.8010    4.0534 C.3     1  UNL1        0.0959
     23 C          11.3364   38.4192    3.5167 C.3     1  UNL1        0.0206
     24 C          10.0211   37.7087    3.6509 C.3     1  UNL1        0.0206
     25 C           8.9854   38.8094    3.5771 C.3     1  UNL1        0.0959
     26 N           9.6447   40.0878    3.8363 N.3     1  UNL1       -0.1551
@<TRIPOS>BOND
     1     1     2    1
     2     2     6   ar
     3     3     8    1
     4     3     4   ar
     5     7    11    1
     6    12    13   ar
     7    14    15   ar
     8    14    17    1
     9    16    11   ar
    10     5     6   ar
    11    22    26    1
    12    22    23    1
    13    23    24    1
    14    24    25    1
    15    25    26    1
    16     8     7   am
    17    21     5    1
    18    21    26    1
    19     2     3   ar
    20     7     9    2
    21    11    12   ar
    22    13    14   ar
    23    15    16   ar
    24     4     5   ar
    25    21    19    2
    26    21    20    2
    27    17    18    3
    28     8    10    1
