@<TRIPOS>MOLECULE
MolPort-035-706-987 CSSS03437789242 MCULE-7256095243 PubChem-91938312
 32 34 0 0 0
SMALL
GASTEIGER

@<TRIPOS>ATOM
      1 C           8.2712   41.9657   10.0931 C.3     1  UNL1        0.2880
      2 C           7.6421   41.9222   11.4785 C.3     1  UNL1        0.0650
      3 C          10.0164   40.2988    9.3805 C.ar    1  UNL1        0.1542
      4 C          11.3273   39.8331    9.5187 C.ar    1  UNL1        0.0529
      5 C          11.7967   38.7855    8.7185 C.ar    1  UNL1        0.0537
      6 C          10.9361   38.2036    7.7745 C.ar    1  UNL1        0.0162
      7 C           9.6241   38.6647    7.6356 C.ar    1  UNL1        0.0190
      8 C           9.1662   39.7119    8.4383 C.ar    1  UNL1        0.0850
      9 C           7.3531   41.2591    9.1158 C.2     1  UNL1        0.2732
     10 O           9.5643   41.3471   10.1894 O.3     1  UNL1       -0.4618
     11 O           6.1563   41.6343    8.9900 O.2     1  UNL1       -0.2704
     12 N           7.8290   40.1800    8.3118 N.am    1  UNL1       -0.2783
     13 H           7.2243   39.7545    7.6618 H       1  UNL1        0.1551
     14 C          13.5869   36.9964    9.1498 C.2     1  UNL1        0.2495
     15 O          12.7521   36.0564    9.2494 O.2     1  UNL1       -0.2698
     16 N          13.1487   38.3391    8.8910 N.am    1  UNL1       -0.2803
     17 H          13.8508   39.0261    8.8250 H       1  UNL1        0.1552
     18 C          15.0256   36.7145    9.3003 C.ar    1  UNL1        0.0539
     19 C          15.8572   37.6172    9.9771 C.ar    1  UNL1        0.0076
     20 C          17.2214   37.3506   10.1198 C.ar    1  UNL1        0.0370
     21 C          17.7726   36.1754    9.5852 C.ar    1  UNL1        0.1384
     22 C          16.9434   35.2738    8.9114 C.ar    1  UNL1        0.0370
     23 C          15.5788   35.5406    8.7687 C.ar    1  UNL1        0.0076
     24 O          19.1338   35.8776    9.7133 O.3     1  UNL1       -0.4792
     25 C          19.6473   34.9769   10.6888 C.3     1  UNL1        0.1661
     26 C          19.0589   33.5942   10.4800 C.3     1  UNL1        0.0472
     27 C          19.2745   35.4699   12.0708 C.3     1  UNL1        0.0472
     28 C           8.4509   43.3940    9.6554 C.2     1  UNL1        0.3623
     29 O           8.3160   43.7080    8.4393 O.2     1  UNL1       -0.2457
     30 O           8.8369   44.3576   10.5934 O.3     1  UNL1       -0.4458
     31 C           7.4728   45.9798    9.4361 C.3     1  UNL1        0.0513
     32 C           8.6273   45.7505   10.3944 C.3     1  UNL1        0.2087
@<TRIPOS>BOND
     1    31    32    1
     2    32    30    1
     3    28    30    1
     4     1    28    1
     5     1     2    1
     6     1    10    1
     7     1     9    1
     8     3    10    1
     9     4     5   ar
    10     5    16    1
    11    14    18    1
    12    19    20   ar
    13    21    24    1
    14    21    22   ar
    15    25    24    1
    16    25    26    1
    17    25    27    1
    18    23    18   ar
    19     6     7   ar
    20     8    12    1
    21     8     3   ar
    22    16    14   am
    23    12     9   am
    24    28    29    2
    25     3     4   ar
    26     5     6   ar
    27    14    15    2
    28    18    19   ar
    29    20    21   ar
    30    22    23   ar
    31     7     8   ar
    32     9    11    2
    33    16    17    1
    34    12    13    1
@<TRIPOS>MOLECULE
MolPort-035-706-987 CSSS03437789242 MCULE-7256095243 PubChem-91938312
 32 34 0 0 0
SMALL
GASTEIGER

@<TRIPOS>ATOM
      1 C           9.4046   40.3072    7.2800 C.3     1  UNL1        0.2880
      2 C          10.4856   39.7562    8.1991 C.3     1  UNL1        0.0650
      3 C           7.4432   41.6047    8.1751 C.ar    1  UNL1        0.1542
      4 C           6.2484   41.5836    8.9007 C.ar    1  UNL1        0.0529
      5 C           5.4743   42.7424    9.0281 C.ar    1  UNL1        0.0537
      6 C           5.9110   43.9301    8.4204 C.ar    1  UNL1        0.0162
      7 C           7.1063   43.9555    7.6966 C.ar    1  UNL1        0.0190
      8 C           7.8704   42.7928    7.5745 C.ar    1  UNL1        0.0850
      9 C           9.8768   41.6275    6.7048 C.2     1  UNL1        0.2732
     10 O           8.2041   40.4365    8.0587 O.3     1  UNL1       -0.4618
     11 O          10.9654   41.6870    6.0720 O.2     1  UNL1       -0.2704
     12 N           9.0939   42.8123    6.8494 N.am    1  UNL1       -0.2783
     13 H           9.4046   43.6531    6.4423 H       1  UNL1        0.1551
     14 C           4.0967   42.2102   11.1282 C.2     1  UNL1        0.2495
     15 O           5.0908   41.7978   11.7854 O.2     1  UNL1       -0.2698
     16 N           4.2545   42.6772    9.7795 N.am    1  UNL1       -0.2803
     17 H           3.4389   42.9853    9.3222 H       1  UNL1        0.1552
     18 C           2.7604   42.2131   11.7497 C.ar    1  UNL1        0.0539
     19 C           2.4819   43.0658   12.8266 C.ar    1  UNL1        0.0076
     20 C           1.2152   43.0687   13.4164 C.ar    1  UNL1        0.0370
     21 C           0.2089   42.2159   12.9361 C.ar    1  UNL1        0.1384
     22 C           0.4854   41.3662   11.8609 C.ar    1  UNL1        0.0370
     23 C           1.7526   41.3634   11.2709 C.ar    1  UNL1        0.0076
     24 O          -1.0704   42.1966   13.5026 O.3     1  UNL1       -0.4792
     25 C          -1.7563   43.3716   13.9218 C.3     1  UNL1        0.1661
     26 C          -0.8737   44.5887   13.7187 C.3     1  UNL1        0.0472
     27 C          -2.1036   43.2515   15.3904 C.3     1  UNL1        0.0472
     28 C           9.1477   39.3432    6.1537 C.2     1  UNL1        0.3623
     29 O           9.3063   39.7089    4.9550 O.2     1  UNL1       -0.2457
     30 O           8.6650   38.0619    6.4414 O.3     1  UNL1       -0.4458
     31 C          10.0020   37.5442    8.3845 C.3     1  UNL1        0.0513
     32 C           8.6173   37.5378    7.7631 C.3     1  UNL1        0.2087
@<TRIPOS>BOND
     1    31    32    1
     2    32    30    1
     3    28    30    1
     4     1    28    1
     5     1     2    1
     6     1    10    1
     7     1     9    1
     8     3    10    1
     9     4     5   ar
    10     5    16    1
    11    14    18    1
    12    19    20   ar
    13    21    24    1
    14    21    22   ar
    15    25    24    1
    16    25    26    1
    17    25    27    1
    18    23    18   ar
    19     6     7   ar
    20     8    12    1
    21     8     3   ar
    22    16    14   am
    23    12     9   am
    24    28    29    2
    25     3     4   ar
    26     5     6   ar
    27    14    15    2
    28    18    19   ar
    29    20    21   ar
    30    22    23   ar
    31     7     8   ar
    32     9    11    2
    33    16    17    1
    34    12    13    1
@<TRIPOS>MOLECULE
MolPort-035-706-987 CSSS03437789242 MCULE-7256095243 PubChem-91938312
 32 34 0 0 0
SMALL
GASTEIGER

@<TRIPOS>ATOM
      1 C          15.1774   38.4893   10.7856 C.3     1  UNL1        0.2880
      2 C          16.2849   39.4048   11.2877 C.3     1  UNL1        0.0650
      3 C          13.1507   39.3935    9.5994 C.ar    1  UNL1        0.1542
      4 C          11.9582   40.1177    9.6887 C.ar    1  UNL1        0.0529
      5 C          11.1250   40.2541    8.5728 C.ar    1  UNL1        0.0537
      6 C          11.4997   39.6571    7.3589 C.ar    1  UNL1        0.0162
      7 C          12.6925   38.9348    7.2652 C.ar    1  UNL1        0.0190
      8 C          13.5160   38.8035    8.3856 C.ar    1  UNL1        0.0850
      9 C          15.5808   37.9260    9.4377 C.2     1  UNL1        0.2732
     10 O          13.9714   39.2679   10.7255 O.3     1  UNL1       -0.4618
     11 O          16.6652   37.2948    9.3163 O.2     1  UNL1       -0.2704
     12 N          14.7374   38.0799    8.2964 N.am    1  UNL1       -0.2783
     13 H          15.0042   37.6804    7.4371 H       1  UNL1        0.1551
     14 C           8.6470   40.7178    8.0866 C.2     1  UNL1        0.2495
     15 O           8.5159   39.7185    7.3285 O.2     1  UNL1       -0.2698
     16 N           9.9097   41.0037    8.7077 N.am    1  UNL1       -0.2803
     17 H           9.9450   41.7985    9.2876 H       1  UNL1        0.1552
     18 C           7.4939   41.6005    8.3377 C.ar    1  UNL1        0.0539
     19 C           6.2007   41.0677    8.4292 C.ar    1  UNL1        0.0076
     20 C           5.1070   41.9042    8.6670 C.ar    1  UNL1        0.0370
     21 C           5.2932   43.2877    8.8155 C.ar    1  UNL1        0.1384
     22 C           6.5830   43.8196    8.7260 C.ar    1  UNL1        0.0370
     23 C           7.6770   42.9827    8.4882 C.ar    1  UNL1        0.0076
     24 O           4.2196   44.1520    9.0571 O.3     1  UNL1       -0.4792
     25 C           3.8582   45.2122    8.1786 C.3     1  UNL1        0.1661
     26 C           2.4628   44.9798    7.6303 C.3     1  UNL1        0.0472
     27 C           4.8398   45.2650    7.0272 C.3     1  UNL1        0.0472
     28 C          14.9715   37.3546   11.7520 C.2     1  UNL1        0.3623
     29 O          15.9340   36.9351   12.4543 O.2     1  UNL1       -0.2457
     30 O          13.7249   36.7226   11.8156 O.3     1  UNL1       -0.4458
     31 C          11.7840   36.1609   10.4931 C.3     1  UNL1        0.0513
     32 C          13.2441   35.8669   10.7859 C.3     1  UNL1        0.2087
@<TRIPOS>BOND
     1    31    32    1
     2    32    30    1
     3    28    30    1
     4     1    28    1
     5     1     2    1
     6     1    10    1
     7     1     9    1
     8     3    10    1
     9     4     5   ar
    10     5    16    1
    11    14    18    1
    12    19    20   ar
    13    21    24    1
    14    21    22   ar
    15    25    24    1
    16    25    26    1
    17    25    27    1
    18    23    18   ar
    19     6     7   ar
    20     8    12    1
    21     8     3   ar
    22    16    14   am
    23    12     9   am
    24    28    29    2
    25     3     4   ar
    26     5     6   ar
    27    14    15    2
    28    18    19   ar
    29    20    21   ar
    30    22    23   ar
    31     7     8   ar
    32     9    11    2
    33    16    17    1
    34    12    13    1
@<TRIPOS>MOLECULE
MolPort-035-706-987 CSSS03437789242 MCULE-7256095243 PubChem-91938312
 32 34 0 0 0
SMALL
GASTEIGER

@<TRIPOS>ATOM
      1 C          13.2526   35.1263   10.4576 C.3     1  UNL1        0.2880
      2 C          13.5687   33.9319    9.5685 C.3     1  UNL1        0.0650
      3 C          12.9983   37.4456    9.5152 C.ar    1  UNL1        0.1542
      4 C          13.6175   38.5558    8.9334 C.ar    1  UNL1        0.0529
      5 C          12.8813   39.7109    8.6475 C.ar    1  UNL1        0.0537
      6 C          11.5108   39.7439    8.9494 C.ar    1  UNL1        0.0162
      7 C          10.8878   38.6349    9.5284 C.ar    1  UNL1        0.0190
      8 C          11.6324   37.4876    9.8109 C.ar    1  UNL1        0.0850
      9 C          11.7568   35.1768   10.6967 C.2     1  UNL1        0.2732
     10 O          13.7503   36.2992    9.7937 O.3     1  UNL1       -0.4618
     11 O          11.1627   34.1809   11.1909 O.2     1  UNL1       -0.2704
     12 N          11.0042   36.3501   10.3896 N.am    1  UNL1       -0.2783
     13 H          10.0387   36.3724   10.5806 H       1  UNL1        0.1551
     14 C          14.9228   41.2173    8.2543 C.2     1  UNL1        0.2495
     15 O          15.6721   40.5553    9.0227 O.2     1  UNL1       -0.2698
     16 N          13.5554   40.8281    8.0523 N.am    1  UNL1       -0.2803
     17 H          13.0244   41.3874    7.4404 H       1  UNL1        0.1552
     18 C          15.4549   42.4016    7.5569 C.ar    1  UNL1        0.0539
     19 C          16.8384   42.6041    7.4598 C.ar    1  UNL1        0.0076
     20 C          17.3435   43.7269    6.7990 C.ar    1  UNL1        0.0370
     21 C          16.4692   44.6641    6.2264 C.ar    1  UNL1        0.1384
     22 C          15.0891   44.4619    6.3214 C.ar    1  UNL1        0.0370
     23 C          14.5840   43.3386    6.9825 C.ar    1  UNL1        0.0076
     24 O          16.9428   45.7971    5.5556 O.3     1  UNL1       -0.4792
     25 C          16.1026   46.6690    4.8070 C.3     1  UNL1        0.1661
     26 C          15.0145   47.2354    5.6998 C.3     1  UNL1        0.0472
     27 C          15.4610   45.8958    3.6745 C.3     1  UNL1        0.0472
     28 C          13.9580   34.9839   11.7789 C.2     1  UNL1        0.3623
     29 O          13.9961   33.8638   12.3619 O.2     1  UNL1       -0.2457
     30 O          14.5102   36.1151   12.3895 O.3     1  UNL1       -0.4458
     31 C          16.3074   37.7059   12.1229 C.3     1  UNL1        0.0513
     32 C          15.9129   36.3003   12.5381 C.3     1  UNL1        0.2087
@<TRIPOS>BOND
     1    31    32    1
     2    32    30    1
     3    28    30    1
     4     1    28    1
     5     1     2    1
     6     1    10    1
     7     1     9    1
     8     3    10    1
     9     4     5   ar
    10     5    16    1
    11    14    18    1
    12    19    20   ar
    13    21    24    1
    14    21    22   ar
    15    25    24    1
    16    25    26    1
    17    25    27    1
    18    23    18   ar
    19     6     7   ar
    20     8    12    1
    21     8     3   ar
    22    16    14   am
    23    12     9   am
    24    28    29    2
    25     3     4   ar
    26     5     6   ar
    27    14    15    2
    28    18    19   ar
    29    20    21   ar
    30    22    23   ar
    31     7     8   ar
    32     9    11    2
    33    16    17    1
    34    12    13    1
@<TRIPOS>MOLECULE
MolPort-035-706-987 CSSS03437789242 MCULE-7256095243 PubChem-91938312
 32 34 0 0 0
SMALL
GASTEIGER

@<TRIPOS>ATOM
      1 C           6.6702   42.9729    8.1218 C.3     1  UNL1        0.2880
      2 C           6.5197   43.3815    6.6633 C.3     1  UNL1        0.0650
      3 C           8.7331   41.8012    8.9605 C.ar    1  UNL1        0.1542
      4 C           9.5019   40.6337    8.9744 C.ar    1  UNL1        0.0529
      5 C          10.6545   40.5517    9.7638 C.ar    1  UNL1        0.0537
      6 C          11.0337   41.6565   10.5422 C.ar    1  UNL1        0.0162
      7 C          10.2691   42.8264   10.5286 C.ar    1  UNL1        0.0190
      8 C           9.1197   42.8969    9.7383 C.ar    1  UNL1        0.0850
      9 C           7.1570   44.1675    8.9175 C.2     1  UNL1        0.2732
     10 O           7.5840   41.8651    8.1650 O.3     1  UNL1       -0.4618
     11 O           6.5036   45.2453    8.9013 O.2     1  UNL1       -0.2704
     12 N           8.3418   44.0874    9.7095 N.am    1  UNL1       -0.2783
     13 H           8.6240   44.8657   10.2424 H       1  UNL1        0.1551
     14 C          12.4389   38.9687    8.8141 C.2     1  UNL1        0.2495
     15 O          12.7603   39.7482    7.8763 O.2     1  UNL1       -0.2698
     16 N          11.4137   39.3350    9.7505 N.am    1  UNL1       -0.2803
     17 H          11.2105   38.6818   10.4584 H       1  UNL1        0.1552
     18 C          13.1214   37.6697    8.9505 C.ar    1  UNL1        0.0539
     19 C          12.5494   36.6462    9.7186 C.ar    1  UNL1        0.0076
     20 C          13.1962   35.4145    9.8485 C.ar    1  UNL1        0.0370
     21 C          14.4268   35.1906    9.2112 C.ar    1  UNL1        0.1384
     22 C          14.9972   36.2104    8.4435 C.ar    1  UNL1        0.0370
     23 C          14.3500   37.4425    8.3136 C.ar    1  UNL1        0.0076
     24 O          15.0986   33.9679    9.3190 O.3     1  UNL1       -0.4792
     25 C          15.3148   33.0960    8.2145 C.3     1  UNL1        0.1661
     26 C          14.3717   31.9104    8.2961 C.3     1  UNL1        0.0472
     27 C          16.7432   32.5952    8.2441 C.3     1  UNL1        0.0472
     28 C           5.3423   42.5246    8.6691 C.2     1  UNL1        0.3623
     29 O           4.3461   43.3007    8.6356 O.2     1  UNL1       -0.2457
     30 O           5.2374   41.2694    9.2780 O.3     1  UNL1       -0.4458
     31 C           4.2763   40.4629   11.3413 C.3     1  UNL1        0.0513
     32 C           4.0357   40.8069    9.8827 C.3     1  UNL1        0.2087
@<TRIPOS>BOND
     1    31    32    1
     2    32    30    1
     3    28    30    1
     4     1    28    1
     5     1     2    1
     6     1    10    1
     7     1     9    1
     8     3    10    1
     9     4     5   ar
    10     5    16    1
    11    14    18    1
    12    19    20   ar
    13    21    24    1
    14    21    22   ar
    15    25    24    1
    16    25    26    1
    17    25    27    1
    18    23    18   ar
    19     6     7   ar
    20     8    12    1
    21     8     3   ar
    22    16    14   am
    23    12     9   am
    24    28    29    2
    25     3     4   ar
    26     5     6   ar
    27    14    15    2
    28    18    19   ar
    29    20    21   ar
    30    22    23   ar
    31     7     8   ar
    32     9    11    2
    33    16    17    1
    34    12    13    1
@<TRIPOS>MOLECULE
MolPort-035-706-987 CSSS03437789242 MCULE-7256095243 PubChem-91938312
 32 34 0 0 0
SMALL
GASTEIGER

@<TRIPOS>ATOM
      1 C           5.0680   41.8218    9.9394 C.3     1  UNL1        0.2880
      2 C           4.8728   41.1294   11.2808 C.3     1  UNL1        0.0650
      3 C           7.2415   41.6755    8.6799 C.ar    1  UNL1        0.1542
      4 C           8.5889   42.0415    8.6079 C.ar    1  UNL1        0.0529
      5 C           9.3709   41.6597    7.5120 C.ar    1  UNL1        0.0537
      6 C           8.7887   40.9019    6.4838 C.ar    1  UNL1        0.0162
      7 C           7.4429   40.5318    6.5538 C.ar    1  UNL1        0.0190
      8 C           6.6710   40.9195    7.6513 C.ar    1  UNL1        0.0850
      9 C           4.5000   40.9397    8.8456 C.2     1  UNL1        0.2732
     10 O           6.4752   42.0661    9.7833 O.3     1  UNL1       -0.4618
     11 O           3.2972   40.5661    8.8969 O.2     1  UNL1       -0.2704
     12 N           5.3035   40.5376    7.7365 N.am    1  UNL1       -0.2783
     13 H           4.9064   39.9893    7.0217 H       1  UNL1        0.1551
     14 C          11.6936   41.7986    6.4269 C.2     1  UNL1        0.2495
     15 O          11.3493   41.1592    5.3959 O.2     1  UNL1       -0.2698
     16 N          10.7483   42.0575    7.4764 N.am    1  UNL1       -0.2803
     17 H          11.0811   42.5614    8.2539 H       1  UNL1        0.1552
     18 C          13.0788   42.2848    6.5563 C.ar    1  UNL1        0.0539
     19 C          13.9530   41.6954    7.4798 C.ar    1  UNL1        0.0076
     20 C          15.2664   42.1562    7.6030 C.ar    1  UNL1        0.0370
     21 C          15.7228   43.2155    6.8030 C.ar    1  UNL1        0.1384
     22 C          14.8519   43.8028    5.8804 C.ar    1  UNL1        0.0370
     23 C          13.5381   43.3418    5.7572 C.ar    1  UNL1        0.0076
     24 O          17.0326   43.6984    6.8999 O.3     1  UNL1       -0.4792
     25 C          17.8982   43.3937    7.9882 C.3     1  UNL1        0.1661
     26 C          17.9076   41.8979    8.2417 C.3     1  UNL1        0.0472
     27 C          17.4074   44.1035    9.2322 C.3     1  UNL1        0.0472
     28 C           4.3455   43.1415    9.9328 C.2     1  UNL1        0.3623
     29 O           3.2292   43.2581   10.5125 O.2     1  UNL1       -0.2457
     30 O           4.8857   44.2180    9.2210 O.3     1  UNL1       -0.4458
     31 C           3.6308   45.2507    7.4348 C.3     1  UNL1        0.0513
     32 C           4.7816   44.3336    7.8069 C.3     1  UNL1        0.2087
@<TRIPOS>BOND
     1    31    32    1
     2    32    30    1
     3    28    30    1
     4     1    28    1
     5     1     2    1
     6     1    10    1
     7     1     9    1
     8     3    10    1
     9     4     5   ar
    10     5    16    1
    11    14    18    1
    12    19    20   ar
    13    21    24    1
    14    21    22   ar
    15    25    24    1
    16    25    26    1
    17    25    27    1
    18    23    18   ar
    19     6     7   ar
    20     8    12    1
    21     8     3   ar
    22    16    14   am
    23    12     9   am
    24    28    29    2
    25     3     4   ar
    26     5     6   ar
    27    14    15    2
    28    18    19   ar
    29    20    21   ar
    30    22    23   ar
    31     7     8   ar
    32     9    11    2
    33    16    17    1
    34    12    13    1
@<TRIPOS>MOLECULE
MolPort-035-706-987 CSSS03437789242 MCULE-7256095243 PubChem-91938312
 32 34 0 0 0
SMALL
GASTEIGER

@<TRIPOS>ATOM
      1 C           4.5744   41.5372   10.2018 C.3     1  UNL1        0.2880
      2 C           4.3277   40.7111   11.4563 C.3     1  UNL1        0.0650
      3 C           6.7429   41.3991    8.9329 C.ar    1  UNL1        0.1542
      4 C           8.1108   41.6862    8.9022 C.ar    1  UNL1        0.0529
      5 C           8.8749   41.3827    7.7698 C.ar    1  UNL1        0.0537
      6 C           8.2537   40.7838    6.6626 C.ar    1  UNL1        0.0162
      7 C           6.8870   40.4928    6.6909 C.ar    1  UNL1        0.0190
      8 C           6.1335   40.8013    7.8256 C.ar    1  UNL1        0.0850
      9 C           3.9600   40.8216    9.0154 C.2     1  UNL1        0.2732
     10 O           5.9950   41.7094   10.0738 O.3     1  UNL1       -0.4618
     11 O           2.7360   40.5204    9.0247 O.2     1  UNL1       -0.2704
     12 N           4.7444   40.4982    7.8675 N.am    1  UNL1       -0.2783
     13 H           4.3187   40.0601    7.0954 H       1  UNL1        0.1551
     14 C          11.3427   40.8825    7.2688 C.2     1  UNL1        0.2495
     15 O          11.1021   39.7618    6.7431 O.2     1  UNL1       -0.2698
     16 N          10.2745   41.6953    7.7789 N.am    1  UNL1       -0.2803
     17 H          10.5300   42.5587    8.1770 H       1  UNL1        0.1552
     18 C          12.7330   41.3627    7.3609 C.ar    1  UNL1        0.0539
     19 C          13.5557   40.9520    8.4186 C.ar    1  UNL1        0.0076
     20 C          14.8739   41.4072    8.5065 C.ar    1  UNL1        0.0370
     21 C          15.3867   42.2821    7.5358 C.ar    1  UNL1        0.1384
     22 C          14.5672   42.6910    6.4795 C.ar    1  UNL1        0.0370
     23 C          13.2486   42.2354    6.3917 C.ar    1  UNL1        0.0076
     24 O          16.7028   42.7539    7.5934 O.3     1  UNL1       -0.4792
     25 C          17.1212   43.9749    6.9927 C.3     1  UNL1        0.1661
     26 C          15.9116   44.7835    6.5625 C.3     1  UNL1        0.0472
     27 C          17.9702   43.6696    5.7770 C.3     1  UNL1        0.0472
     28 C           3.9351   42.8917   10.3450 C.2     1  UNL1        0.3623
     29 O           4.3604   43.8702    9.6687 O.2     1  UNL1       -0.2457
     30 O           2.9135   43.0747   11.2832 O.3     1  UNL1       -0.4458
     31 C           1.2032   42.4632   12.8747 C.3     1  UNL1        0.0513
     32 C           2.4543   42.0298   12.1325 C.3     1  UNL1        0.2087
@<TRIPOS>BOND
     1    31    32    1
     2    32    30    1
     3    28    30    1
     4     1    28    1
     5     1     2    1
     6     1    10    1
     7     1     9    1
     8     3    10    1
     9     4     5   ar
    10     5    16    1
    11    14    18    1
    12    19    20   ar
    13    21    24    1
    14    21    22   ar
    15    25    24    1
    16    25    26    1
    17    25    27    1
    18    23    18   ar
    19     6     7   ar
    20     8    12    1
    21     8     3   ar
    22    16    14   am
    23    12     9   am
    24    28    29    2
    25     3     4   ar
    26     5     6   ar
    27    14    15    2
    28    18    19   ar
    29    20    21   ar
    30    22    23   ar
    31     7     8   ar
    32     9    11    2
    33    16    17    1
    34    12    13    1
@<TRIPOS>MOLECULE
MolPort-035-706-987 CSSS03437789242 MCULE-7256095243 PubChem-91938312
 32 34 0 0 0
SMALL
GASTEIGER

@<TRIPOS>ATOM
      1 C           6.2841   42.7759    7.9104 C.3     1  UNL1        0.2880
      2 C           6.1498   42.7698    6.3942 C.3     1  UNL1        0.0650
      3 C           8.5173   42.5180    9.0410 C.ar    1  UNL1        0.1542
      4 C           9.5899   41.6776    9.3536 C.ar    1  UNL1        0.0529
      5 C          10.6417   42.1366   10.1545 C.ar    1  UNL1        0.0537
      6 C          10.6106   43.4530   10.6405 C.ar    1  UNL1        0.0162
      7 C           9.5414   44.2969   10.3276 C.ar    1  UNL1        0.0190
      8 C           8.4960   43.8281    9.5288 C.ar    1  UNL1        0.0850
      9 C           6.3278   44.2122    8.3925 C.2     1  UNL1        0.2732
     10 O           7.4746   42.0418    8.2387 O.3     1  UNL1       -0.4618
     11 O           5.3915   45.0044    8.1013 O.2     1  UNL1       -0.2704
     12 N           7.4094   44.6835    9.1959 N.am    1  UNL1       -0.2783
     13 H           7.4033   45.6118    9.5235 H       1  UNL1        0.1551
     14 C          12.8425   40.9317    9.6103 C.2     1  UNL1        0.2495
     15 O          12.9573   41.4640    8.4728 O.2     1  UNL1       -0.2698
     16 N          11.7218   41.2416   10.4529 N.am    1  UNL1       -0.2803
     17 H          11.6918   40.7920   11.3282 H       1  UNL1        0.1552
     18 C          13.8679   39.9828   10.0795 C.ar    1  UNL1        0.0539
     19 C          14.9592   39.6578    9.2622 C.ar    1  UNL1        0.0076
     20 C          15.9315   38.7580    9.7065 C.ar    1  UNL1        0.0370
     21 C          15.8238   38.1696   10.9764 C.ar    1  UNL1        0.1384
     22 C          14.7365   38.4946   11.7929 C.ar    1  UNL1        0.0370
     23 C          13.7639   39.3948   11.3484 C.ar    1  UNL1        0.0076
     24 O          16.7817   37.2672   11.4520 O.3     1  UNL1       -0.4792
     25 C          18.1220   37.2275   10.9739 C.3     1  UNL1        0.1661
     26 C          18.6617   38.6374   10.8229 C.3     1  UNL1        0.0472
     27 C          18.1525   36.5390    9.6259 C.3     1  UNL1        0.0472
     28 C           5.1027   42.0830    8.5334 C.2     1  UNL1        0.3623
     29 O           4.9827   40.8285    8.4461 O.2     1  UNL1       -0.2457
     30 O           4.1039   42.8453    9.1487 O.3     1  UNL1       -0.4458
     31 C           3.9318   42.0932   11.4370 C.3     1  UNL1        0.0513
     32 C           3.2127   42.3055   10.1173 C.3     1  UNL1        0.2087
@<TRIPOS>BOND
     1    31    32    1
     2    32    30    1
     3    28    30    1
     4     1    28    1
     5     1     2    1
     6     1    10    1
     7     1     9    1
     8     3    10    1
     9     4     5   ar
    10     5    16    1
    11    14    18    1
    12    19    20   ar
    13    21    24    1
    14    21    22   ar
    15    25    24    1
    16    25    26    1
    17    25    27    1
    18    23    18   ar
    19     6     7   ar
    20     8    12    1
    21     8     3   ar
    22    16    14   am
    23    12     9   am
    24    28    29    2
    25     3     4   ar
    26     5     6   ar
    27    14    15    2
    28    18    19   ar
    29    20    21   ar
    30    22    23   ar
    31     7     8   ar
    32     9    11    2
    33    16    17    1
    34    12    13    1
@<TRIPOS>MOLECULE
MolPort-035-706-987 CSSS03437789242 MCULE-7256095243 PubChem-91938312
 32 34 0 0 0
SMALL
GASTEIGER

@<TRIPOS>ATOM
      1 C          16.9128   38.7864   10.4668 C.3     1  UNL1        0.2880
      2 C          17.3070   38.8242   11.9365 C.3     1  UNL1        0.0650
      3 C          14.9277   40.0650    9.5971 C.ar    1  UNL1        0.1542
      4 C          13.5363   40.1921    9.5500 C.ar    1  UNL1        0.0529
      5 C          12.9399   41.1816    8.7603 C.ar    1  UNL1        0.0537
      6 C          13.7542   42.0490    8.0154 C.ar    1  UNL1        0.0162
      7 C          15.1456   41.9267    8.0623 C.ar    1  UNL1        0.0190
      8 C          15.7304   40.9346    8.8526 C.ar    1  UNL1        0.0850
      9 C          17.7557   39.7913    9.7075 C.2     1  UNL1        0.2732
     10 O          15.5063   39.0699   10.3924 O.3     1  UNL1       -0.4618
     11 O          19.0136   39.7236    9.7544 O.2     1  UNL1       -0.2704
     12 N          17.1459   40.8101    8.9152 N.am    1  UNL1       -0.2783
     13 H          17.7120   41.4342    8.4060 H       1  UNL1        0.1551
     14 C          10.7056   42.3193    9.3127 C.2     1  UNL1        0.2495
     15 O          11.2444   43.2871    9.9154 O.2     1  UNL1       -0.2698
     16 N          11.5090   41.2766    8.7389 N.am    1  UNL1       -0.2803
     17 H          11.0265   40.5499    8.2824 H       1  UNL1        0.1552
     18 C           9.2378   42.2574    9.1959 C.ar    1  UNL1        0.0539
     19 C           8.6097   42.5745    7.9836 C.ar    1  UNL1        0.0076
     20 C           7.2180   42.5162    7.8725 C.ar    1  UNL1        0.0370
     21 C           6.4350   42.1403    8.9753 C.ar    1  UNL1        0.1384
     22 C           7.0609   41.8223   10.1843 C.ar    1  UNL1        0.0370
     23 C           8.4530   41.8806   10.2954 C.ar    1  UNL1        0.0076
     24 O           5.0397   42.0695    8.8961 O.3     1  UNL1       -0.4792
     25 C           4.1722   42.9501    9.6021 C.3     1  UNL1        0.1661
     26 C           3.0645   42.1603   10.2737 C.3     1  UNL1        0.0472
     27 C           3.5583   43.9346    8.6294 C.3     1  UNL1        0.0472
     28 C          17.1584   37.4126    9.9044 C.2     1  UNL1        0.3623
     29 O          16.3677   36.4648   10.1732 O.2     1  UNL1       -0.2457
     30 O          18.3062   37.1773    9.1398 O.3     1  UNL1       -0.4458
     31 C          18.6114   34.7936    8.9034 C.3     1  UNL1        0.0513
     32 C          18.3956   36.1181    8.1944 C.3     1  UNL1        0.2087
@<TRIPOS>BOND
     1    31    32    1
     2    32    30    1
     3    28    30    1
     4     1    28    1
     5     1     2    1
     6     1    10    1
     7     1     9    1
     8     3    10    1
     9     4     5   ar
    10     5    16    1
    11    14    18    1
    12    19    20   ar
    13    21    24    1
    14    21    22   ar
    15    25    24    1
    16    25    26    1
    17    25    27    1
    18    23    18   ar
    19     6     7   ar
    20     8    12    1
    21     8     3   ar
    22    16    14   am
    23    12     9   am
    24    28    29    2
    25     3     4   ar
    26     5     6   ar
    27    14    15    2
    28    18    19   ar
    29    20    21   ar
    30    22    23   ar
    31     7     8   ar
    32     9    11    2
    33    16    17    1
    34    12    13    1
@<TRIPOS>MOLECULE
MolPort-035-706-987 CSSS03437789242 MCULE-7256095243 PubChem-91938312
 32 34 0 0 0
SMALL
GASTEIGER

@<TRIPOS>ATOM
      1 C           6.5127   42.6364    8.0030 C.3     1  UNL1        0.2880
      2 C           6.2777   42.7826    6.5062 C.3     1  UNL1        0.0650
      3 C           8.8102   42.2356    8.9478 C.ar    1  UNL1        0.1542
      4 C           9.8834   41.3530    9.1026 C.ar    1  UNL1        0.0529
      5 C          10.9955   41.7152    9.8708 C.ar    1  UNL1        0.0537
      6 C          11.0245   42.9773   10.4846 C.ar    1  UNL1        0.0162
      7 C           9.9548   43.8633   10.3296 C.ar    1  UNL1        0.0190
      8 C           8.8490   43.4910    9.5619 C.ar    1  UNL1        0.0850
      9 C           6.6185   44.0170    8.6194 C.2     1  UNL1        0.2732
     10 O           7.7068   41.8563    8.1758 O.3     1  UNL1       -0.4618
     11 O           5.6818   44.8475    8.4719 O.2     1  UNL1       -0.2704
     12 N           7.7609   44.3907    9.3893 N.am    1  UNL1       -0.2783
     13 H           7.7961   45.2820    9.8060 H       1  UNL1        0.1551
     14 C          13.2714   40.7245    9.2149 C.2     1  UNL1        0.2495
     15 O          13.4654   41.5536    8.2848 O.2     1  UNL1       -0.2698
     16 N          12.0741   40.7797   10.0057 N.am    1  UNL1       -0.2803
     17 H          11.9841   40.1036   10.7157 H       1  UNL1        0.1552
     18 C          14.2827   39.6892    9.4932 C.ar    1  UNL1        0.0539
     19 C          15.5869   40.0523    9.8561 C.ar    1  UNL1        0.0076
     20 C          16.5461   39.0711   10.1199 C.ar    1  UNL1        0.0370
     21 C          16.2125   37.7109   10.0227 C.ar    1  UNL1        0.1384
     22 C          14.9114   37.3479    9.6624 C.ar    1  UNL1        0.0370
     23 C          13.9519   38.3296    9.3986 C.ar    1  UNL1        0.0076
     24 O          17.1488   36.7041   10.2829 O.3     1  UNL1       -0.4792
     25 C          18.2762   36.4527    9.4508 C.3     1  UNL1        0.1661
     26 C          17.8382   35.7444    8.1826 C.3     1  UNL1        0.0472
     27 C          19.2606   35.5744   10.1934 C.3     1  UNL1        0.0472
     28 C           5.3611   41.9021    8.6343 C.2     1  UNL1        0.3623
     29 O           4.9237   40.8375    8.1136 O.2     1  UNL1       -0.2457
     30 O           4.7343   42.4445    9.7614 O.3     1  UNL1       -0.4458
     31 C           6.1918   41.3854   11.3694 C.3     1  UNL1        0.0513
     32 C           4.7754   41.8193   11.0387 C.3     1  UNL1        0.2087
@<TRIPOS>BOND
     1    31    32    1
     2    32    30    1
     3    28    30    1
     4     1    28    1
     5     1     2    1
     6     1    10    1
     7     1     9    1
     8     3    10    1
     9     4     5   ar
    10     5    16    1
    11    14    18    1
    12    19    20   ar
    13    21    24    1
    14    21    22   ar
    15    25    24    1
    16    25    26    1
    17    25    27    1
    18    23    18   ar
    19     6     7   ar
    20     8    12    1
    21     8     3   ar
    22    16    14   am
    23    12     9   am
    24    28    29    2
    25     3     4   ar
    26     5     6   ar
    27    14    15    2
    28    18    19   ar
    29    20    21   ar
    30    22    23   ar
    31     7     8   ar
    32     9    11    2
    33    16    17    1
    34    12    13    1
