@<TRIPOS>MOLECULE
MolPort-002-994-723 13942052 CSSS00121599790 MCULE-3848106283 PubChem-3502326 ZINC000013942052 ZINC13942052
 23 24 0 0 0
SMALL
GASTEIGER

@<TRIPOS>ATOM
      1 C          11.9338   42.0305    7.1241 C.2     1  UNL1        0.2729
      2 N          12.8491   42.2346    6.0432 N.am    1  UNL1       -0.2485
      3 O          12.0196   42.7039    8.1851 O.2     1  UNL1       -0.2706
      4 H          12.7441   41.6691    5.2442 H       1  UNL1        0.1579
      5 C          13.9053   43.1996    6.0376 C.ar    1  UNL1        0.2617
      6 N          15.7550   44.1174    6.3853 N.ar    1  UNL1       -0.1497
      7 N          15.0168   44.9619    5.6853 N.ar    1  UNL1       -0.0438
      8 N          13.8375   44.4102    5.4480 N.ar    1  UNL1       -0.0918
      9 N          15.0954   42.9960    6.6295 N.ar    1  UNL1       -0.1137
     10 C          17.1167   44.4116    6.8188 C.3     1  UNL1        0.1514
     11 C          17.4078   43.8392    8.2002 C.3     1  UNL1        0.0283
     12 C          17.1683   41.5307    9.1097 C.3     1  UNL1        0.0001
     13 C          17.8786   42.4003    8.0894 C.3     1  UNL1        0.0021
     14 C          10.8897   40.9792    7.0077 C.3     1  UNL1        0.2897
     15 O          10.7913   40.2688    8.2338 O.3     1  UNL1       -0.4659
     16 C          11.8703   39.9114    9.0587 C.ar    1  UNL1        0.1353
     17 C          11.9436   40.1750   10.4537 C.ar    1  UNL1        0.0130
     18 C          10.8689   40.8706   11.2160 C.3     1  UNL1        0.0342
     19 C          13.0719   39.7712   11.1756 C.ar    1  UNL1        0.0101
     20 C          14.1252   39.1126   10.5406 C.ar    1  UNL1        0.0576
     21 C          14.0588   38.8513    9.1730 C.ar    1  UNL1        0.0145
     22 C          12.9387   39.2490    8.4412 C.ar    1  UNL1        0.0375
     23 CL         15.5284   38.6151   11.4603 Cl      1  UNL1       -0.0823
@<TRIPOS>BOND
     1    12    13    1
     2    13    11    1
     3    11    10    1
     4    10     6    1
     5     5     8   ar
     6     5     2    1
     7    14     1    1
     8    14    15    1
     9    16    15    1
    10    17    19   ar
    11    18    17    1
    12    20    23    1
    13    20    21   ar
    14    22    16   ar
    15     6     7   ar
    16     6     9   ar
    17     2     1   am
    18     5     9   ar
    19     1     3    2
    20    16    17   ar
    21    19    20   ar
    22    21    22   ar
    23     7     8   ar
    24     2     4    1
@<TRIPOS>MOLECULE
MolPort-002-994-723 13942052 CSSS00121599790 MCULE-3848106283 PubChem-3502326 ZINC000013942052 ZINC13942052
 23 24 0 0 0
SMALL
GASTEIGER

@<TRIPOS>ATOM
      1 C          12.3968   41.6951    6.5127 C.2     1  UNL1        0.2729
      2 N          12.7959   42.8379    5.7496 N.am    1  UNL1       -0.2485
      3 O          13.1381   41.2248    7.4159 O.2     1  UNL1       -0.2706
      4 H          12.1833   43.1529    5.0462 H       1  UNL1        0.1579
      5 C          14.0192   43.5569    5.9333 C.ar    1  UNL1        0.2617
      6 N          15.9915   44.0105    6.4705 N.ar    1  UNL1       -0.1497
      7 N          15.4706   45.0925    5.9174 N.ar    1  UNL1       -0.0438
      8 N          14.2204   44.8383    5.5654 N.ar    1  UNL1       -0.0918
      9 N          15.1136   43.0203    6.5012 N.ar    1  UNL1       -0.1137
     10 C          17.3597   43.9463    6.9733 C.3     1  UNL1        0.1514
     11 C          17.4162   43.3997    8.3941 C.3     1  UNL1        0.0283
     12 C          17.4904   41.0715    9.2820 C.3     1  UNL1        0.0001
     13 C          16.6808   42.0746    8.4819 C.3     1  UNL1        0.0021
     14 C          11.1038   41.0289    6.2073 C.3     1  UNL1        0.2897
     15 O          10.0325   41.9180    6.4889 O.3     1  UNL1       -0.4659
     16 C           9.1377   41.8025    7.5651 C.ar    1  UNL1        0.1353
     17 C           7.8590   41.1858    7.4909 C.ar    1  UNL1        0.0130
     18 C           7.3099   40.5802    6.2453 C.3     1  UNL1        0.0342
     19 C           7.0512   41.1290    8.6318 C.ar    1  UNL1        0.0101
     20 C           7.4878   41.6710    9.8410 C.ar    1  UNL1        0.0576
     21 C           8.7408   42.2767    9.9197 C.ar    1  UNL1        0.0145
     22 C           9.5564   42.3400    8.7888 C.ar    1  UNL1        0.0375
     23 CL          6.4633   41.5903   11.2574 Cl      1  UNL1       -0.0823
@<TRIPOS>BOND
     1    12    13    1
     2    13    11    1
     3    11    10    1
     4    10     6    1
     5     5     8   ar
     6     5     2    1
     7    14     1    1
     8    14    15    1
     9    16    15    1
    10    17    19   ar
    11    18    17    1
    12    20    23    1
    13    20    21   ar
    14    22    16   ar
    15     6     7   ar
    16     6     9   ar
    17     2     1   am
    18     5     9   ar
    19     1     3    2
    20    16    17   ar
    21    19    20   ar
    22    21    22   ar
    23     7     8   ar
    24     2     4    1
@<TRIPOS>MOLECULE
MolPort-002-994-723 13942052 CSSS00121599790 MCULE-3848106283 PubChem-3502326 ZINC000013942052 ZINC13942052
 23 24 0 0 0
SMALL
GASTEIGER

@<TRIPOS>ATOM
      1 C          12.5591   41.6740    6.9039 C.2     1  UNL1        0.2729
      2 N          12.8938   42.6213    5.8849 N.am    1  UNL1       -0.2485
      3 O          13.2880   41.5275    7.9206 O.2     1  UNL1       -0.2706
      4 H          12.2958   42.6824    5.1052 H       1  UNL1        0.1579
      5 C          14.0331   43.4863    5.9154 C.ar    1  UNL1        0.2617
      6 N          15.9769   44.1951    6.2370 N.ar    1  UNL1       -0.1497
      7 N          15.2814   45.1758    5.6869 N.ar    1  UNL1       -0.0438
      8 N          14.0442   44.7589    5.4701 N.ar    1  UNL1       -0.0918
      9 N          15.2311   43.1136    6.3989 N.ar    1  UNL1       -0.1137
     10 C          17.3827   44.3187    6.6073 C.3     1  UNL1        0.1514
     11 C          17.6399   43.8298    8.0270 C.3     1  UNL1        0.0283
     12 C          17.1840   41.6015    9.0471 C.3     1  UNL1        0.0001
     13 C          18.0084   42.3572    8.0219 C.3     1  UNL1        0.0021
     14 C          11.3525   40.8218    6.7402 C.3     1  UNL1        0.2897
     15 O          11.1241   40.0864    7.9338 O.3     1  UNL1       -0.4659
     16 C          10.4240   40.5530    9.0582 C.ar    1  UNL1        0.1353
     17 C          10.9141   40.5083   10.3919 C.ar    1  UNL1        0.0130
     18 C          12.2475   39.9541   10.7591 C.3     1  UNL1        0.0342
     19 C          10.1255   41.0041   11.4357 C.ar    1  UNL1        0.0101
     20 C           8.8636   41.5419   11.1810 C.ar    1  UNL1        0.0576
     21 C           8.3779   41.5885    9.8753 C.ar    1  UNL1        0.0145
     22 C           9.1547   41.0971    8.8249 C.ar    1  UNL1        0.0375
     23 CL          7.8916   42.1574   12.4997 Cl      1  UNL1       -0.0823
@<TRIPOS>BOND
     1    12    13    1
     2    13    11    1
     3    11    10    1
     4    10     6    1
     5     5     8   ar
     6     5     2    1
     7    14     1    1
     8    14    15    1
     9    16    15    1
    10    17    19   ar
    11    18    17    1
    12    20    23    1
    13    20    21   ar
    14    22    16   ar
    15     6     7   ar
    16     6     9   ar
    17     2     1   am
    18     5     9   ar
    19     1     3    2
    20    16    17   ar
    21    19    20   ar
    22    21    22   ar
    23     7     8   ar
    24     2     4    1
@<TRIPOS>MOLECULE
MolPort-002-994-723 13942052 CSSS00121599790 MCULE-3848106283 PubChem-3502326 ZINC000013942052 ZINC13942052
 23 24 0 0 0
SMALL
GASTEIGER

@<TRIPOS>ATOM
      1 C          11.4163   41.7206    8.9380 C.2     1  UNL1        0.2729
      2 N          12.2987   41.3651    7.8690 N.am    1  UNL1       -0.2485
      3 O          11.3016   42.9166    9.3162 O.2     1  UNL1       -0.2706
      4 H          12.3596   40.4130    7.6258 H       1  UNL1        0.1579
      5 C          13.0990   42.2907    7.1276 C.ar    1  UNL1        0.2617
      6 N          14.6113   43.6514    6.6317 N.ar    1  UNL1       -0.1497
      7 N          13.8343   43.5156    5.5706 N.ar    1  UNL1       -0.0438
      8 N          12.8652   42.6592    5.8519 N.ar    1  UNL1       -0.0918
      9 N          14.1858   42.8991    7.6343 N.ar    1  UNL1       -0.1137
     10 C          15.7792   44.5253    6.6637 C.3     1  UNL1        0.1514
     11 C          16.9548   43.9284    5.9007 C.3     1  UNL1        0.0283
     12 C          17.6644   43.8328    8.2884 C.3     1  UNL1        0.0001
     13 C          18.0250   43.4502    6.8653 C.3     1  UNL1        0.0021
     14 C          10.6526   40.6556    9.6388 C.3     1  UNL1        0.2897
     15 O          11.4544   40.0945   10.6684 O.3     1  UNL1       -0.4659
     16 C          12.5903   39.2925   10.4724 C.ar    1  UNL1        0.1353
     17 C          12.5620   37.9518   10.0004 C.ar    1  UNL1        0.0130
     18 C          11.3061   37.2297    9.6522 C.3     1  UNL1        0.0342
     19 C          13.7610   37.2481    9.8436 C.ar    1  UNL1        0.0101
     20 C          14.9835   37.8486   10.1456 C.ar    1  UNL1        0.0576
     21 C          15.0175   39.1629   10.6087 C.ar    1  UNL1        0.0145
     22 C          13.8284   39.8760   10.7695 C.ar    1  UNL1        0.0375
     23 CL         16.4729   36.9524    9.9432 Cl      1  UNL1       -0.0823
@<TRIPOS>BOND
     1    12    13    1
     2    13    11    1
     3    11    10    1
     4    10     6    1
     5     5     8   ar
     6     5     2    1
     7    14     1    1
     8    14    15    1
     9    16    15    1
    10    17    19   ar
    11    18    17    1
    12    20    23    1
    13    20    21   ar
    14    22    16   ar
    15     6     7   ar
    16     6     9   ar
    17     2     1   am
    18     5     9   ar
    19     1     3    2
    20    16    17   ar
    21    19    20   ar
    22    21    22   ar
    23     7     8   ar
    24     2     4    1
@<TRIPOS>MOLECULE
MolPort-002-994-723 13942052 CSSS00121599790 MCULE-3848106283 PubChem-3502326 ZINC000013942052 ZINC13942052
 23 24 0 0 0
SMALL
GASTEIGER

@<TRIPOS>ATOM
      1 C          10.2234   41.4379    6.1786 C.2     1  UNL1        0.2729
      2 N           9.6639   41.8597    7.4264 N.am    1  UNL1       -0.2485
      3 O           9.4859   41.1547    5.1976 O.2     1  UNL1       -0.2706
      4 H          10.2874   42.0533    8.1632 H       1  UNL1        0.1579
      5 C           8.2655   42.0208    7.6823 C.ar    1  UNL1        0.2617
      6 N           6.3362   41.6994    8.4299 N.ar    1  UNL1       -0.1497
      7 N           6.2916   42.7749    7.6623 N.ar    1  UNL1       -0.0438
      8 N           7.4992   43.0062    7.1726 N.ar    1  UNL1       -0.0918
      9 N           7.5584   41.1926    8.4711 N.ar    1  UNL1       -0.1137
     10 C           5.1724   41.1636    9.1280 C.3     1  UNL1        0.1514
     11 C           5.3508   41.2033   10.6404 C.3     1  UNL1        0.0283
     12 C           3.1648   41.9454   11.5810 C.3     1  UNL1        0.0001
     13 C           4.0771   40.7582   11.3362 C.3     1  UNL1        0.0021
     14 C          11.6971   41.2942    6.0510 C.3     1  UNL1        0.2897
     15 O          12.3020   42.5794    6.0494 O.3     1  UNL1       -0.4659
     16 C          13.6442   42.8499    6.3615 C.ar    1  UNL1        0.1353
     17 C          14.3920   42.1777    7.3664 C.ar    1  UNL1        0.0130
     18 C          13.8322   41.0911    8.2184 C.3     1  UNL1        0.0342
     19 C          15.7266   42.5331    7.5897 C.ar    1  UNL1        0.0101
     20 C          16.3307   43.5400    6.8362 C.ar    1  UNL1        0.0576
     21 C          15.6025   44.2025    5.8494 C.ar    1  UNL1        0.0145
     22 C          14.2702   43.8574    5.6168 C.ar    1  UNL1        0.0375
     23 CL         18.0013   43.9707    7.1298 Cl      1  UNL1       -0.0823
@<TRIPOS>BOND
     1    12    13    1
     2    13    11    1
     3    11    10    1
     4    10     6    1
     5     5     8   ar
     6     5     2    1
     7    14     1    1
     8    14    15    1
     9    16    15    1
    10    17    19   ar
    11    18    17    1
    12    20    23    1
    13    20    21   ar
    14    22    16   ar
    15     6     7   ar
    16     6     9   ar
    17     2     1   am
    18     5     9   ar
    19     1     3    2
    20    16    17   ar
    21    19    20   ar
    22    21    22   ar
    23     7     8   ar
    24     2     4    1
@<TRIPOS>MOLECULE
MolPort-002-994-723 13942052 CSSS00121599790 MCULE-3848106283 PubChem-3502326 ZINC000013942052 ZINC13942052
 23 24 0 0 0
SMALL
GASTEIGER

@<TRIPOS>ATOM
      1 C          11.4507   40.3642   10.2027 C.2     1  UNL1        0.2729
      2 N          10.7875   41.0008   11.2993 N.am    1  UNL1       -0.2485
      3 O          10.8037   39.9409    9.2083 O.2     1  UNL1       -0.2706
      4 H          11.3418   41.2981   12.0567 H       1  UNL1        0.1579
      5 C           9.3785   41.2371   11.3767 C.ar    1  UNL1        0.2617
      6 N           7.4155   41.7190   10.8302 N.ar    1  UNL1       -0.1497
      7 N           7.4081   41.4191   12.1179 N.ar    1  UNL1       -0.0438
      8 N           8.6378   41.1088   12.4960 N.ar    1  UNL1       -0.0918
      9 N           8.6342   41.6177   10.3235 N.ar    1  UNL1       -0.1137
     10 C           6.2195   42.1082   10.0906 C.3     1  UNL1        0.1514
     11 C           4.9455   41.7665   10.8529 C.3     1  UNL1        0.0283
     12 C           2.9340   41.2489    9.4746 C.3     1  UNL1        0.0001
     13 C           3.7337   42.3485   10.1477 C.3     1  UNL1        0.0021
     14 C          12.9224   40.1644   10.2564 C.3     1  UNL1        0.2897
     15 O          13.4449   40.1197    8.9363 O.3     1  UNL1       -0.4659
     16 C          14.3211   41.0616    8.3732 C.ar    1  UNL1        0.1353
     17 C          13.9856   41.9436    7.3099 C.ar    1  UNL1        0.0130
     18 C          12.6457   41.9736    6.6590 C.3     1  UNL1        0.0342
     19 C          14.9434   42.8428    6.8286 C.ar    1  UNL1        0.0101
     20 C          16.2237   42.8826    7.3816 C.ar    1  UNL1        0.0576
     21 C          16.5582   42.0202    8.4244 C.ar    1  UNL1        0.0145
     22 C          15.6119   41.1185    8.9137 C.ar    1  UNL1        0.0375
     23 CL         17.4084   44.0141    6.7663 Cl      1  UNL1       -0.0823
@<TRIPOS>BOND
     1    12    13    1
     2    13    11    1
     3    11    10    1
     4    10     6    1
     5     5     8   ar
     6     5     2    1
     7    14     1    1
     8    14    15    1
     9    16    15    1
    10    17    19   ar
    11    18    17    1
    12    20    23    1
    13    20    21   ar
    14    22    16   ar
    15     6     7   ar
    16     6     9   ar
    17     2     1   am
    18     5     9   ar
    19     1     3    2
    20    16    17   ar
    21    19    20   ar
    22    21    22   ar
    23     7     8   ar
    24     2     4    1
@<TRIPOS>MOLECULE
MolPort-002-994-723 13942052 CSSS00121599790 MCULE-3848106283 PubChem-3502326 ZINC000013942052 ZINC13942052
 23 24 0 0 0
SMALL
GASTEIGER

@<TRIPOS>ATOM
      1 C           9.8256   41.2929    8.7950 C.2     1  UNL1        0.2729
      2 N          10.6054   40.1162    9.0297 N.am    1  UNL1       -0.2485
      3 O          10.2744   42.4366    9.0725 O.2     1  UNL1       -0.2706
      4 H          10.1981   39.2477    8.8079 H       1  UNL1        0.1579
      5 C          11.9330   40.1082    9.5629 C.ar    1  UNL1        0.2617
      6 N          14.0202   40.2176    9.6891 N.ar    1  UNL1       -0.1497
      7 N          13.5597   39.9814   10.9057 N.ar    1  UNL1       -0.0438
      8 N          12.2391   39.9063   10.8604 N.ar    1  UNL1       -0.0918
      9 N          13.0317   40.3049    8.8131 N.ar    1  UNL1       -0.1137
     10 C          15.4397   40.3584    9.3824 C.3     1  UNL1        0.1514
     11 C          15.7192   41.6049    8.5524 C.3     1  UNL1        0.0283
     12 C          17.4045   43.4375    8.4285 C.3     1  UNL1        0.0001
     13 C          17.1989   41.9426    8.5851 C.3     1  UNL1        0.0021
     14 C           8.4489   41.1596    8.2513 C.3     1  UNL1        0.2897
     15 O           7.7004   42.3266    8.5607 O.3     1  UNL1       -0.4659
     16 C           6.4691   42.3511    9.2355 C.ar    1  UNL1        0.1353
     17 C           5.3844   43.2097    8.9079 C.ar    1  UNL1        0.0130
     18 C           5.4263   44.1980    7.7938 C.3     1  UNL1        0.0342
     19 C           4.2019   43.1454    9.6529 C.ar    1  UNL1        0.0101
     20 C           4.0766   42.2476   10.7134 C.ar    1  UNL1        0.0576
     21 C           5.1368   41.4033   11.0391 C.ar    1  UNL1        0.0145
     22 C           6.3219   41.4574   10.3037 C.ar    1  UNL1        0.0375
     23 CL          2.5896   42.1817   11.6338 Cl      1  UNL1       -0.0823
@<TRIPOS>BOND
     1    12    13    1
     2    13    11    1
     3    11    10    1
     4    10     6    1
     5     5     8   ar
     6     5     2    1
     7    14     1    1
     8    14    15    1
     9    16    15    1
    10    17    19   ar
    11    18    17    1
    12    20    23    1
    13    20    21   ar
    14    22    16   ar
    15     6     7   ar
    16     6     9   ar
    17     2     1   am
    18     5     9   ar
    19     1     3    2
    20    16    17   ar
    21    19    20   ar
    22    21    22   ar
    23     7     8   ar
    24     2     4    1
@<TRIPOS>MOLECULE
MolPort-002-994-723 13942052 CSSS00121599790 MCULE-3848106283 PubChem-3502326 ZINC000013942052 ZINC13942052
 23 24 0 0 0
SMALL
GASTEIGER

@<TRIPOS>ATOM
      1 C           9.2225   41.6139    7.7481 C.2     1  UNL1        0.2729
      2 N          10.5682   41.5156    8.2247 N.am    1  UNL1       -0.2485
      3 O           8.9712   42.0566    6.5960 O.2     1  UNL1       -0.2706
      4 H          10.7043   41.1767    9.1390 H       1  UNL1        0.1579
      5 C          11.7305   41.8734    7.4710 C.ar    1  UNL1        0.2617
      6 N          13.5859   42.6976    6.9588 N.ar    1  UNL1       -0.1497
      7 N          13.1277   42.0576    5.8965 N.ar    1  UNL1       -0.0438
      8 N          11.9524   41.5234    6.1879 N.ar    1  UNL1       -0.0918
      9 N          12.7391   42.6077    7.9723 N.ar    1  UNL1       -0.1137
     10 C          14.8628   43.4031    6.9810 C.3     1  UNL1        0.1514
     11 C          15.9412   42.6008    7.6981 C.3     1  UNL1        0.0283
     12 C          17.7984   43.7468    6.4935 C.3     1  UNL1        0.0001
     13 C          17.2037   43.4293    7.8526 C.3     1  UNL1        0.0021
     14 C           8.1012   41.2239    8.6423 C.3     1  UNL1        0.2897
     15 O           6.9696   42.0377    8.3686 O.3     1  UNL1       -0.4659
     16 C           5.8283   42.1475    9.1795 C.ar    1  UNL1        0.1353
     17 C           4.8171   43.1343    9.0230 C.ar    1  UNL1        0.0130
     18 C           4.8489   44.1827    7.9648 C.3     1  UNL1        0.0342
     19 C           3.7217   43.1464    9.8933 C.ar    1  UNL1        0.0101
     20 C           3.6117   42.2001   10.9125 C.ar    1  UNL1        0.0576
     21 C           4.6001   41.2300   11.0706 C.ar    1  UNL1        0.0145
     22 C           5.6981   41.2070   10.2091 C.ar    1  UNL1        0.0375
     23 CL          2.2342   42.2311   11.9913 Cl      1  UNL1       -0.0823
@<TRIPOS>BOND
     1    12    13    1
     2    13    11    1
     3    11    10    1
     4    10     6    1
     5     5     8   ar
     6     5     2    1
     7    14     1    1
     8    14    15    1
     9    16    15    1
    10    17    19   ar
    11    18    17    1
    12    20    23    1
    13    20    21   ar
    14    22    16   ar
    15     6     7   ar
    16     6     9   ar
    17     2     1   am
    18     5     9   ar
    19     1     3    2
    20    16    17   ar
    21    19    20   ar
    22    21    22   ar
    23     7     8   ar
    24     2     4    1
@<TRIPOS>MOLECULE
MolPort-002-994-723 13942052 CSSS00121599790 MCULE-3848106283 PubChem-3502326 ZINC000013942052 ZINC13942052
 23 24 0 0 0
SMALL
GASTEIGER

@<TRIPOS>ATOM
      1 C          10.1320   41.7068    7.6656 C.2     1  UNL1        0.2729
      2 N           8.9919   42.2405    6.9851 N.am    1  UNL1       -0.2485
      3 O          10.2877   41.8745    8.9042 O.2     1  UNL1       -0.2706
      4 H           8.9298   42.0917    6.0139 H       1  UNL1        0.1579
      5 C           7.9355   42.9744    7.6117 C.ar    1  UNL1        0.2617
      6 N           6.0185   43.6308    8.1396 N.ar    1  UNL1       -0.1497
      7 N           6.8892   44.3544    8.8225 N.ar    1  UNL1       -0.0438
      8 N           8.1145   43.9632    8.5107 N.ar    1  UNL1       -0.0918
      9 N           6.6328   42.7504    7.3652 N.ar    1  UNL1       -0.1137
     10 C           4.5737   43.8037    8.2461 C.3     1  UNL1        0.1514
     11 C           4.0275   43.2223    9.5439 C.3     1  UNL1        0.0283
     12 C           2.7030   41.1160    9.3921 C.3     1  UNL1        0.0001
     13 C           4.0952   41.7061    9.5154 C.3     1  UNL1        0.0021
     14 C          11.1687   40.9765    6.8905 C.3     1  UNL1        0.2897
     15 O          12.3658   40.9004    7.6514 O.3     1  UNL1       -0.4659
     16 C          13.5188   41.6731    7.4379 C.ar    1  UNL1        0.1353
     17 C          14.7619   41.4698    8.0968 C.ar    1  UNL1        0.0130
     18 C          14.9915   40.3973    9.1053 C.3     1  UNL1        0.0342
     19 C          15.8453   42.3048    7.8030 C.ar    1  UNL1        0.0101
     20 C          15.7181   43.3343    6.8700 C.ar    1  UNL1        0.0576
     21 C          14.5016   43.5383    6.2207 C.ar    1  UNL1        0.0145
     22 C          13.4130   42.7123    6.5049 C.ar    1  UNL1        0.0375
     23 CL         17.0845   44.3685    6.5155 Cl      1  UNL1       -0.0823
@<TRIPOS>BOND
     1    12    13    1
     2    13    11    1
     3    11    10    1
     4    10     6    1
     5     5     8   ar
     6     5     2    1
     7    14     1    1
     8    14    15    1
     9    16    15    1
    10    17    19   ar
    11    18    17    1
    12    20    23    1
    13    20    21   ar
    14    22    16   ar
    15     6     7   ar
    16     6     9   ar
    17     2     1   am
    18     5     9   ar
    19     1     3    2
    20    16    17   ar
    21    19    20   ar
    22    21    22   ar
    23     7     8   ar
    24     2     4    1
@<TRIPOS>MOLECULE
MolPort-002-994-723 13942052 CSSS00121599790 MCULE-3848106283 PubChem-3502326 ZINC000013942052 ZINC13942052
 23 24 0 0 0
SMALL
GASTEIGER

@<TRIPOS>ATOM
      1 C          10.8440   42.4600    9.4911 C.2     1  UNL1        0.2729
      2 N          11.5592   41.5659    8.6328 N.am    1  UNL1       -0.2485
      3 O          11.2609   43.6293    9.7049 O.2     1  UNL1       -0.2706
      4 H          11.1949   40.6589    8.5143 H       1  UNL1        0.1579
      5 C          12.7643   41.8922    7.9341 C.ar    1  UNL1        0.2617
      6 N          14.0916   42.7652    6.5701 N.ar    1  UNL1       -0.1497
      7 N          14.7903   41.9444    7.3358 N.ar    1  UNL1       -0.0438
      8 N          13.9780   41.3747    8.2117 N.ar    1  UNL1       -0.0918
      9 N          12.8126   42.7638    6.9113 N.ar    1  UNL1       -0.1137
     10 C          14.6814   43.5566    5.4956 C.3     1  UNL1        0.1514
     11 C          15.2435   44.8770    6.0070 C.3     1  UNL1        0.0283
     12 C          17.4491   43.8111    5.5455 C.3     1  UNL1        0.0001
     13 C          16.6665   44.6911    6.5019 C.3     1  UNL1        0.0021
     14 C           9.6104   41.9876   10.1722 C.3     1  UNL1        0.2897
     15 O           8.5054   42.7774    9.7564 O.3     1  UNL1       -0.4659
     16 C           7.1612   42.3710    9.7694 C.ar    1  UNL1        0.1353
     17 C           6.5468   41.6427   10.8245 C.ar    1  UNL1        0.0130
     18 C           7.2665   41.2195   12.0585 C.3     1  UNL1        0.0342
     19 C           5.1961   41.2912   10.7274 C.ar    1  UNL1        0.0101
     20 C           4.4464   41.6483    9.6063 C.ar    1  UNL1        0.0576
     21 C           5.0435   42.3625    8.5687 C.ar    1  UNL1        0.0145
     22 C           6.3903   42.7193    8.6533 C.ar    1  UNL1        0.0375
     23 CL          2.7581   41.1998    9.5027 Cl      1  UNL1       -0.0823
@<TRIPOS>BOND
     1    12    13    1
     2    13    11    1
     3    11    10    1
     4    10     6    1
     5     5     8   ar
     6     5     2    1
     7    14     1    1
     8    14    15    1
     9    16    15    1
    10    17    19   ar
    11    18    17    1
    12    20    23    1
    13    20    21   ar
    14    22    16   ar
    15     6     7   ar
    16     6     9   ar
    17     2     1   am
    18     5     9   ar
    19     1     3    2
    20    16    17   ar
    21    19    20   ar
    22    21    22   ar
    23     7     8   ar
    24     2     4    1
