@<TRIPOS>MOLECULE
MolPort-047-073-850 MCULE-1850452322 PubChem-132772074
 30 33 0 0 0
SMALL
GASTEIGER

@<TRIPOS>ATOM
      1 C          16.6621   40.2199    9.8623 C.ar    1  UNL1        0.2218
      2 C          16.7431   38.6898   11.6669 C.ar    1  UNL1        0.1031
      3 C          15.3518   38.6317   11.6944 C.ar    1  UNL1        0.0355
      4 C          14.6340   39.3988   10.7699 C.ar    1  UNL1        0.0644
      5 N          17.3710   39.4782   10.7568 N.ar    1  UNL1       -0.2120
      6 N          15.3037   40.1738    9.8767 N.ar    1  UNL1       -0.2179
      7 C          13.1388   39.3814   10.7445 C.3     1  UNL1        0.0564
      8 C          12.6163   38.1597    9.9997 C.3     1  UNL1        0.0087
      9 C          11.0969   38.1809    9.9996 C.3     1  UNL1        0.0178
     10 C          10.5956   39.4870    9.3754 C.3     1  UNL1        0.0731
     11 C          12.5832   40.6666   10.1166 C.3     1  UNL1        0.0789
     12 N          11.1130   40.6782   10.0646 N.3     1  UNL1       -0.2596
     13 C          10.5587   40.7527   11.4138 C.3     1  UNL1        0.1795
     14 C           9.3090   41.5183   11.3992 C.1     1  UNL1        0.0912
     15 N           8.3225   42.1230   11.3873 N.1     1  UNL1       -0.1944
     16 N          17.3241   41.0511    8.9027 N.pl3   1  UNL1       -0.2628
     17 H          18.2665   40.8486    8.7028 H       1  UNL1        0.1570
     18 C          15.2417   43.2834    6.9704 C.ar    1  UNL1        0.1431
     19 C          16.1440   44.3257    7.2041 C.ar    1  UNL1        0.0619
     20 C          16.7274   42.1524    8.2104 C.ar    1  UNL1        0.1658
     21 S          17.3869   43.6887    8.1487 S.2     1  UNL1       -0.0507
     22 N          15.5676   42.0848    7.5277 N.ar    1  UNL1       -0.2193
     23 C          14.0163   43.4603    6.1745 C.2     1  UNL1        0.2676
     24 C          11.6938   42.2547    5.5163 C.3     1  UNL1        0.1622
     25 C          11.4396   40.9195    6.1080 C.3     1  UNL1        0.2998
     26 C          12.7604   41.1248    6.7473 C.3     1  UNL1        0.1622
     27 N          13.0057   42.4515    6.1551 N.am    1  UNL1       -0.2640
     28 O          13.8508   44.5118    5.5003 O.2     1  UNL1       -0.2682
     29 F          10.3887   40.9037    7.0051 F       1  UNL1       -0.2006
     30 F          11.4292   39.8965    5.1791 F       1  UNL1       -0.2006
@<TRIPOS>BOND
     1    18    23    1
     2    18    22   ar
     3    19    21   ar
     4    20    21   ar
     5    20    16    1
     6     1     6   ar
     7     2     5   ar
     8     3     4   ar
     9     7     4    1
    10     7     8    1
    11     8     9    1
    12     9    10    1
    13    10    12    1
    14    13    12    1
    15    13    14    1
    16    11    12    1
    17    11     7    1
    18    23    27   am
    19    24    27    1
    20    24    25    1
    21    25    26    1
    22    25    29    1
    23    25    30    1
    24    26    27    1
    25    16     1    1
    26    18    19   ar
    27    20    22   ar
    28     1     5   ar
    29     2     3   ar
    30     4     6   ar
    31    23    28    2
    32    14    15    3
    33    16    17    1
@<TRIPOS>MOLECULE
MolPort-047-073-850 MCULE-1850452322 PubChem-132772074
 30 33 0 0 0
SMALL
GASTEIGER

@<TRIPOS>ATOM
      1 C          16.3493   42.3387    7.7962 C.ar    1  UNL1        0.2218
      2 C          15.5596   43.9482    6.2501 C.ar    1  UNL1        0.1031
      3 C          14.2690   43.4359    6.3592 C.ar    1  UNL1        0.0355
      4 C          14.0527   42.3504    7.2157 C.ar    1  UNL1        0.0644
      5 N          16.5718   43.3944    6.9661 N.ar    1  UNL1       -0.2120
      6 N          15.0953   41.8276    7.9133 N.ar    1  UNL1       -0.2179
      7 C          12.6916   41.7533    7.3800 C.3     1  UNL1        0.0564
      8 C          12.7110   40.6105    8.3869 C.3     1  UNL1        0.0087
      9 C          11.3111   40.0355    8.5241 C.3     1  UNL1        0.0178
     10 C          10.8001   39.5795    7.1537 C.3     1  UNL1        0.0731
     11 C          12.1362   41.2686    6.0341 C.3     1  UNL1        0.0789
     12 N          10.8012   40.6637    6.1606 N.3     1  UNL1       -0.2596
     13 C           9.8179   41.6784    6.5304 C.3     1  UNL1        0.1795
     14 C           8.4833   41.2664    6.0862 C.1     1  UNL1        0.0912
     15 N           7.4294   40.9414    5.7357 N.1     1  UNL1       -0.1944
     16 N          17.4165   41.7548    8.5512 N.pl3   1  UNL1       -0.2628
     17 H          18.2929   42.2018    8.5154 H       1  UNL1        0.1570
     18 C          16.3779   39.0093   10.6574 C.ar    1  UNL1        0.1431
     19 C          17.6732   38.4846   10.6104 C.ar    1  UNL1        0.0619
     20 C          17.3131   40.5743    9.3536 C.ar    1  UNL1        0.1658
     21 S          18.5855   39.5301    9.6527 S.2     1  UNL1       -0.0507
     22 N          16.1832   40.1634    9.9621 N.ar    1  UNL1       -0.2193
     23 C          15.2885   38.3632   11.4074 C.2     1  UNL1        0.2676
     24 C          13.1455   36.7501   11.1141 C.3     1  UNL1        0.1622
     25 C          12.8496   36.2699    9.7432 C.3     1  UNL1        0.2998
     26 C          14.0439   37.0662    9.3755 C.3     1  UNL1        0.1622
     27 N          14.3313   37.5392   10.7411 N.am    1  UNL1       -0.2640
     28 O          15.1939   38.5352   12.6520 O.2     1  UNL1       -0.2682
     29 F          13.0240   34.9083    9.5851 F       1  UNL1       -0.2006
     30 F          11.6711   36.7714    9.2247 F       1  UNL1       -0.2006
@<TRIPOS>BOND
     1    18    23    1
     2    18    22   ar
     3    19    21   ar
     4    20    21   ar
     5    20    16    1
     6     1     6   ar
     7     2     5   ar
     8     3     4   ar
     9     7     4    1
    10     7     8    1
    11     8     9    1
    12     9    10    1
    13    10    12    1
    14    13    12    1
    15    13    14    1
    16    11    12    1
    17    11     7    1
    18    23    27   am
    19    24    27    1
    20    24    25    1
    21    25    26    1
    22    25    29    1
    23    25    30    1
    24    26    27    1
    25    16     1    1
    26    18    19   ar
    27    20    22   ar
    28     1     5   ar
    29     2     3   ar
    30     4     6   ar
    31    23    28    2
    32    14    15    3
    33    16    17    1
@<TRIPOS>MOLECULE
MolPort-047-073-850 MCULE-1850452322 PubChem-132772074
 30 33 0 0 0
SMALL
GASTEIGER

@<TRIPOS>ATOM
      1 C          11.9187   38.6589    9.7235 C.ar    1  UNL1        0.2218
      2 C          11.8708   36.4052   10.4467 C.ar    1  UNL1        0.1031
      3 C          13.2411   36.4437   10.6931 C.ar    1  UNL1        0.0355
      4 C          13.9315   37.6337   10.4369 C.ar    1  UNL1        0.0644
      5 N          11.2366   37.5067    9.9689 N.ar    1  UNL1       -0.2120
      6 N          13.2563   38.7121    9.9590 N.ar    1  UNL1       -0.2179
      7 C          15.4029   37.7430   10.6808 C.3     1  UNL1        0.0564
      8 C          15.7661   39.1105   11.2448 C.3     1  UNL1        0.0087
      9 C          17.2661   39.1773   11.4787 C.3     1  UNL1        0.0178
     10 C          18.0093   38.8837   10.1716 C.3     1  UNL1        0.0731
     11 C          16.1964   37.4681    9.3965 C.3     1  UNL1        0.0789
     12 N          17.6495   37.5789    9.5975 N.3     1  UNL1       -0.2596
     13 C          18.1244   36.5049   10.4661 C.3     1  UNL1        0.1795
     14 C          18.8110   35.4843    9.6692 C.1     1  UNL1        0.0912
     15 N          19.3527   34.6783    9.0398 N.1     1  UNL1       -0.1944
     16 N          11.2500   39.8204    9.2199 N.pl3   1  UNL1       -0.2628
     17 H          10.4302   40.1069    9.6837 H       1  UNL1        0.1570
     18 C          12.8478   42.1073    6.9243 C.ar    1  UNL1        0.1431
     19 C          12.0173   41.6528    5.8952 C.ar    1  UNL1        0.0619
     20 C          11.6760   40.5989    8.0972 C.ar    1  UNL1        0.1658
     21 S          11.0159   40.4734    6.5651 S.2     1  UNL1       -0.0507
     22 N          12.6560   41.5229    8.1387 N.ar    1  UNL1       -0.2193
     23 C          13.8662   43.1498    6.7181 C.2     1  UNL1        0.2676
     24 C          16.4217   43.7954    7.2952 C.3     1  UNL1        0.1622
     25 C          17.1899   42.8275    8.1142 C.3     1  UNL1        0.2998
     26 C          15.9314   42.0458    8.0877 C.3     1  UNL1        0.1622
     27 N          15.1747   43.0129    7.2734 N.am    1  UNL1       -0.2640
     28 O          13.5866   44.1774    6.0447 O.2     1  UNL1       -0.2682
     29 F          18.2280   42.2257    7.4292 F       1  UNL1       -0.2006
     30 F          17.5174   43.3036    9.3694 F       1  UNL1       -0.2006
@<TRIPOS>BOND
     1    18    23    1
     2    18    22   ar
     3    19    21   ar
     4    20    21   ar
     5    20    16    1
     6     1     6   ar
     7     2     5   ar
     8     3     4   ar
     9     7     4    1
    10     7     8    1
    11     8     9    1
    12     9    10    1
    13    10    12    1
    14    13    12    1
    15    13    14    1
    16    11    12    1
    17    11     7    1
    18    23    27   am
    19    24    27    1
    20    24    25    1
    21    25    26    1
    22    25    29    1
    23    25    30    1
    24    26    27    1
    25    16     1    1
    26    18    19   ar
    27    20    22   ar
    28     1     5   ar
    29     2     3   ar
    30     4     6   ar
    31    23    28    2
    32    14    15    3
    33    16    17    1
@<TRIPOS>MOLECULE
MolPort-047-073-850 MCULE-1850452322 PubChem-132772074
 30 33 0 0 0
SMALL
GASTEIGER

@<TRIPOS>ATOM
      1 C          16.8954   40.3625    9.7829 C.ar    1  UNL1        0.2218
      2 C          16.5388   38.6122   11.3366 C.ar    1  UNL1        0.1031
      3 C          15.1739   38.6295   11.0593 C.ar    1  UNL1        0.0355
      4 C          14.6964   39.5476   10.1172 C.ar    1  UNL1        0.0644
      5 N          17.3714   39.4738   10.6975 N.ar    1  UNL1       -0.2120
      6 N          15.5659   40.3914    9.5016 N.ar    1  UNL1       -0.2179
      7 C          13.2430   39.6177    9.7723 C.3     1  UNL1        0.0564
      8 C          12.4725   40.4324   10.8031 C.3     1  UNL1        0.0087
      9 C          11.0044   40.4793   10.4139 C.3     1  UNL1        0.0178
     10 C          10.4550   39.0549   10.2864 C.3     1  UNL1        0.0731
     11 C          12.6388   38.2131    9.6432 C.3     1  UNL1        0.0789
     12 N          11.2050   38.2445    9.3155 N.3     1  UNL1       -0.2596
     13 C          11.0044   38.7704    7.9678 C.3     1  UNL1        0.1795
     14 C           9.6981   38.3471    7.4554 C.1     1  UNL1        0.0912
     15 N           8.6666   38.0130    7.0512 N.1     1  UNL1       -0.1944
     16 N          17.7733   41.2708    9.1090 N.pl3   1  UNL1       -0.2628
     17 H          18.7410   41.1453    9.2399 H       1  UNL1        0.1570
     18 C          16.0732   43.5136    6.8436 C.ar    1  UNL1        0.1431
     19 C          17.1265   44.4262    6.9583 C.ar    1  UNL1        0.0619
     20 C          17.3590   42.3464    8.2607 C.ar    1  UNL1        0.1658
     21 S          18.2507   43.7395    8.0105 S.2     1  UNL1       -0.0507
     22 N          16.2055   42.3663    7.5643 N.ar    1  UNL1       -0.2193
     23 C          14.8936   43.7676    6.0007 C.2     1  UNL1        0.2676
     24 C          12.3926   42.8919    5.4919 C.3     1  UNL1        0.1622
     25 C          11.9116   41.7364    6.2863 C.3     1  UNL1        0.2998
     26 C          13.2512   41.8114    6.9150 C.3     1  UNL1        0.1622
     27 N          13.7220   42.9602    6.1213 N.am    1  UNL1       -0.2640
     28 O          14.9113   44.7068    5.1610 O.2     1  UNL1       -0.2682
     29 F          10.8788   42.0506    7.1488 F       1  UNL1       -0.2006
     30 F          11.7176   40.5926    5.5357 F       1  UNL1       -0.2006
@<TRIPOS>BOND
     1    18    23    1
     2    18    22   ar
     3    19    21   ar
     4    20    21   ar
     5    20    16    1
     6     1     6   ar
     7     2     5   ar
     8     3     4   ar
     9     7     4    1
    10     7     8    1
    11     8     9    1
    12     9    10    1
    13    10    12    1
    14    13    12    1
    15    13    14    1
    16    11    12    1
    17    11     7    1
    18    23    27   am
    19    24    27    1
    20    24    25    1
    21    25    26    1
    22    25    29    1
    23    25    30    1
    24    26    27    1
    25    16     1    1
    26    18    19   ar
    27    20    22   ar
    28     1     5   ar
    29     2     3   ar
    30     4     6   ar
    31    23    28    2
    32    14    15    3
    33    16    17    1
@<TRIPOS>MOLECULE
MolPort-047-073-850 MCULE-1850452322 PubChem-132772074
 30 33 0 0 0
SMALL
GASTEIGER

@<TRIPOS>ATOM
      1 C           8.8403   41.3863    6.7237 C.ar    1  UNL1        0.2218
      2 C           7.3263   42.9425    5.7800 C.ar    1  UNL1        0.1031
      3 C           6.5557   42.9127    6.9399 C.ar    1  UNL1        0.0355
      4 C           6.9683   42.0894    7.9936 C.ar    1  UNL1        0.0644
      5 N           8.4488   42.1834    5.6921 N.ar    1  UNL1       -0.2120
      6 N           8.0988   41.3465    7.8621 N.ar    1  UNL1       -0.2179
      7 C           6.1876   42.0117    9.2667 C.3     1  UNL1        0.0564
      8 C           7.0211   41.4007   10.3857 C.3     1  UNL1        0.0087
      9 C           6.1920   41.3426   11.6579 C.3     1  UNL1        0.0178
     10 C           4.9070   40.5479   11.4047 C.3     1  UNL1        0.0731
     11 C           4.8916   41.2138    9.0707 C.3     1  UNL1        0.0789
     12 N           4.1031   41.1071   10.3081 N.3     1  UNL1       -0.2596
     13 C           3.5813   42.4164   10.6910 C.3     1  UNL1        0.1795
     14 C           3.4498   43.2682    9.5057 C.1     1  UNL1        0.0912
     15 N           3.3457   43.9406    8.5695 N.1     1  UNL1       -0.1944
     16 N          10.0239   40.5860    6.6310 N.pl3   1  UNL1       -0.2628
     17 H           9.9145   39.6475    6.3546 H       1  UNL1        0.1570
     18 C          13.1969   42.3071    6.7810 C.ar    1  UNL1        0.1431
     19 C          13.6498   41.3872    7.7316 C.ar    1  UNL1        0.0619
     20 C          11.3530   41.0391    6.9073 C.ar    1  UNL1        0.1658
     21 S          12.3883   40.2997    7.9936 S.2     1  UNL1       -0.0507
     22 N          11.9281   42.1114    6.3282 N.ar    1  UNL1       -0.2193
     23 C          14.0304   43.4186    6.2946 C.2     1  UNL1        0.2676
     24 C          16.5303   44.4288    6.3973 C.3     1  UNL1        0.1622
     25 C          17.5225   43.6837    7.2085 C.3     1  UNL1        0.2998
     26 C          16.3875   42.7676    7.4694 C.3     1  UNL1        0.1622
     27 N          15.4073   43.5139    6.6612 N.am    1  UNL1       -0.2640
     28 O          13.5294   44.2993    5.5457 O.2     1  UNL1       -0.2682
     29 F          18.5321   43.1119    6.4581 F       1  UNL1       -0.2006
     30 F          17.9464   44.3704    8.3301 F       1  UNL1       -0.2006
@<TRIPOS>BOND
     1    18    23    1
     2    18    22   ar
     3    19    21   ar
     4    20    21   ar
     5    20    16    1
     6     1     6   ar
     7     2     5   ar
     8     3     4   ar
     9     7     4    1
    10     7     8    1
    11     8     9    1
    12     9    10    1
    13    10    12    1
    14    13    12    1
    15    13    14    1
    16    11    12    1
    17    11     7    1
    18    23    27   am
    19    24    27    1
    20    24    25    1
    21    25    26    1
    22    25    29    1
    23    25    30    1
    24    26    27    1
    25    16     1    1
    26    18    19   ar
    27    20    22   ar
    28     1     5   ar
    29     2     3   ar
    30     4     6   ar
    31    23    28    2
    32    14    15    3
    33    16    17    1
@<TRIPOS>MOLECULE
MolPort-047-073-850 MCULE-1850452322 PubChem-132772074
 30 33 0 0 0
SMALL
GASTEIGER

@<TRIPOS>ATOM
      1 C          14.0042   42.3663    6.7232 C.ar    1  UNL1        0.2218
      2 C          16.1426   43.3650    6.9097 C.ar    1  UNL1        0.1031
      3 C          16.4669   42.5015    7.9533 C.ar    1  UNL1        0.0355
      4 C          15.5130   41.5632    8.3632 C.ar    1  UNL1        0.0644
      5 N          14.9241   43.2833    6.3158 N.ar    1  UNL1       -0.2120
      6 N          14.3059   41.5168    7.7404 N.ar    1  UNL1       -0.2179
      7 C          15.7974   40.6060    9.4765 C.3     1  UNL1        0.0564
      8 C          17.2920   40.3421    9.6057 C.3     1  UNL1        0.0087
      9 C          17.5353   39.3684   10.7467 C.3     1  UNL1        0.0178
     10 C          16.7471   38.0772   10.5049 C.3     1  UNL1        0.0731
     11 C          15.0385   39.2872    9.2768 C.3     1  UNL1        0.0789
     12 N          15.3047   38.3161   10.3494 N.3     1  UNL1       -0.2596
     13 C          14.7392   38.7868   11.6111 C.3     1  UNL1        0.1795
     14 C          13.4489   39.4381   11.3684 C.1     1  UNL1        0.0912
     15 N          12.4300   39.9520   11.1767 N.1     1  UNL1       -0.1944
     16 N          12.7195   42.2802    6.0971 N.pl3   1  UNL1       -0.2628
     17 H          12.6093   42.7287    5.2276 H       1  UNL1        0.1570
     18 C           9.8896   41.1272    8.0244 C.ar    1  UNL1        0.1431
     19 C           9.6960   40.0837    7.1140 C.ar    1  UNL1        0.0619
     20 C          11.5825   41.5953    6.6320 C.ar    1  UNL1        0.1658
     21 S          10.8938   40.2380    5.9375 S.2     1  UNL1       -0.0507
     22 N          10.9325   41.9596    7.7548 N.ar    1  UNL1       -0.2193
     23 C           9.0273   41.3214    9.2014 C.2     1  UNL1        0.2676
     24 C           6.4584   41.6882    9.9408 C.3     1  UNL1        0.1622
     25 C           5.4473   41.7276    8.8574 C.3     1  UNL1        0.2998
     26 C           6.6169   41.5186    7.9721 C.3     1  UNL1        0.1622
     27 N           7.6158   41.4807    9.0547 N.am    1  UNL1       -0.2640
     28 O           9.5342   41.3482   10.3546 O.2     1  UNL1       -0.2682
     29 F           4.5730   40.6578    8.8786 F       1  UNL1       -0.2006
     30 F           4.8519   42.9648    8.7023 F       1  UNL1       -0.2006
@<TRIPOS>BOND
     1    18    23    1
     2    18    22   ar
     3    19    21   ar
     4    20    21   ar
     5    20    16    1
     6     1     6   ar
     7     2     5   ar
     8     3     4   ar
     9     7     4    1
    10     7     8    1
    11     8     9    1
    12     9    10    1
    13    10    12    1
    14    13    12    1
    15    13    14    1
    16    11    12    1
    17    11     7    1
    18    23    27   am
    19    24    27    1
    20    24    25    1
    21    25    26    1
    22    25    29    1
    23    25    30    1
    24    26    27    1
    25    16     1    1
    26    18    19   ar
    27    20    22   ar
    28     1     5   ar
    29     2     3   ar
    30     4     6   ar
    31    23    28    2
    32    14    15    3
    33    16    17    1
@<TRIPOS>MOLECULE
MolPort-047-073-850 MCULE-1850452322 PubChem-132772074
 30 33 0 0 0
SMALL
GASTEIGER

@<TRIPOS>ATOM
      1 C          11.1916   41.4476    6.1401 C.ar    1  UNL1        0.2218
      2 C           9.9907   39.4110    6.0188 C.ar    1  UNL1        0.1031
      3 C           9.0897   39.8726    6.9754 C.ar    1  UNL1        0.0355
      4 C           9.2763   41.1552    7.5031 C.ar    1  UNL1        0.0644
      5 N          11.0202   40.2015    5.6197 N.ar    1  UNL1       -0.2120
      6 N          10.3206   41.9122    7.0745 N.ar    1  UNL1       -0.2179
      7 C           8.3450   41.7120    8.5321 C.3     1  UNL1        0.0564
      8 C           8.9248   41.5678    9.9332 C.3     1  UNL1        0.0087
      9 C           7.9494   42.1463   10.9446 C.3     1  UNL1        0.0178
     10 C           6.5916   41.4488   10.8148 C.3     1  UNL1        0.0731
     11 C           6.9690   41.0375    8.4526 C.3     1  UNL1        0.0789
     12 N           6.0295   41.5535    9.4603 N.3     1  UNL1       -0.2596
     13 C           5.6873   42.9433    9.1694 C.3     1  UNL1        0.1795
     14 C           4.2311   43.1093    9.1661 C.1     1  UNL1        0.0912
     15 N           3.0813   43.2404    9.1638 N.1     1  UNL1       -0.1944
     16 N          12.2770   42.2811    5.7192 N.pl3   1  UNL1       -0.2628
     17 H          12.1580   42.7921    4.8862 H       1  UNL1        0.1570
     18 C          15.2158   41.9424    7.7931 C.ar    1  UNL1        0.1431
     19 C          15.6910   43.1687    7.3182 C.ar    1  UNL1        0.0619
     20 C          13.5207   42.4321    6.4108 C.ar    1  UNL1        0.1658
     21 S          14.5419   43.7444    6.2270 S.2     1  UNL1       -0.0507
     22 N          14.0170   41.5392    7.2897 N.ar    1  UNL1       -0.2193
     23 C          15.9563   41.1324    8.7741 C.2     1  UNL1        0.2676
     24 C          15.6259   39.3125   10.7386 C.3     1  UNL1        0.1622
     25 C          14.2361   38.8909   11.0361 C.3     1  UNL1        0.2998
     26 C          13.8837   39.8372    9.9518 C.3     1  UNL1        0.1622
     27 N          15.2679   40.2511    9.6621 N.am    1  UNL1       -0.2640
     28 O          17.2121   41.2128    8.8360 O.2     1  UNL1       -0.2682
     29 F          13.9800   37.5702   10.7210 F       1  UNL1       -0.2006
     30 F          13.7927   39.2900   12.2825 F       1  UNL1       -0.2006
@<TRIPOS>BOND
     1    18    23    1
     2    18    22   ar
     3    19    21   ar
     4    20    21   ar
     5    20    16    1
     6     1     6   ar
     7     2     5   ar
     8     3     4   ar
     9     7     4    1
    10     7     8    1
    11     8     9    1
    12     9    10    1
    13    10    12    1
    14    13    12    1
    15    13    14    1
    16    11    12    1
    17    11     7    1
    18    23    27   am
    19    24    27    1
    20    24    25    1
    21    25    26    1
    22    25    29    1
    23    25    30    1
    24    26    27    1
    25    16     1    1
    26    18    19   ar
    27    20    22   ar
    28     1     5   ar
    29     2     3   ar
    30     4     6   ar
    31    23    28    2
    32    14    15    3
    33    16    17    1
@<TRIPOS>MOLECULE
MolPort-047-073-850 MCULE-1850452322 PubChem-132772074
 30 33 0 0 0
SMALL
GASTEIGER

@<TRIPOS>ATOM
      1 C          11.1388   41.4936    5.9884 C.ar    1  UNL1        0.2218
      2 C          10.1942   39.4101    5.3790 C.ar    1  UNL1        0.1031
      3 C           9.2119   39.5575    6.3554 C.ar    1  UNL1        0.0355
      4 C           9.2259   40.7119    7.1464 C.ar    1  UNL1        0.0644
      5 N          11.1354   40.3748    5.2130 N.ar    1  UNL1       -0.2120
      6 N          10.1867   41.6518    6.9454 N.ar    1  UNL1       -0.2179
      7 C           8.1996   40.9331    8.2113 C.3     1  UNL1        0.0564
      8 C           6.7932   40.9384    7.6262 C.3     1  UNL1        0.0087
      9 C           5.7845   41.1637    8.7401 C.3     1  UNL1        0.0178
     10 C           6.1025   42.4712    9.4724 C.3     1  UNL1        0.0731
     11 C           8.4660   42.2396    8.9707 C.3     1  UNL1        0.0789
     12 N           7.4668   42.4953   10.0198 N.3     1  UNL1       -0.2596
     13 C           7.5914   41.5087   11.0896 C.3     1  UNL1        0.1795
     14 C           8.9727   41.4728   11.5779 C.1     1  UNL1        0.0912
     15 N          10.0635   41.4441   11.9633 N.1     1  UNL1       -0.1944
     16 N          12.1311   42.5108    5.8133 N.pl3   1  UNL1       -0.2628
     17 H          11.9175   43.2497    5.1987 H       1  UNL1        0.1570
     18 C          15.0847   41.9069    7.8043 C.ar    1  UNL1        0.1431
     19 C          15.6794   43.0531    7.2679 C.ar    1  UNL1        0.0619
     20 C          13.4080   42.5410    6.4587 C.ar    1  UNL1        0.1658
     21 S          14.5650   43.7196    6.1924 S.2     1  UNL1       -0.0507
     22 N          13.8304   41.6277    7.3550 N.ar    1  UNL1       -0.2193
     23 C          15.7626   41.0512    8.7916 C.2     1  UNL1        0.2676
     24 C          15.2970   39.2890   10.7812 C.3     1  UNL1        0.1622
     25 C          13.8794   38.9865   11.0916 C.3     1  UNL1        0.2998
     26 C          13.5986   39.9449    9.9971 C.3     1  UNL1        0.1622
     27 N          15.0101   40.2403    9.6947 N.am    1  UNL1       -0.2640
     28 O          17.0212   41.0292    8.8457 O.2     1  UNL1       -0.2682
     29 F          13.5139   37.6874   10.7949 F       1  UNL1       -0.2006
     30 F          13.4782   39.4361   12.3351 F       1  UNL1       -0.2006
@<TRIPOS>BOND
     1    18    23    1
     2    18    22   ar
     3    19    21   ar
     4    20    21   ar
     5    20    16    1
     6     1     6   ar
     7     2     5   ar
     8     3     4   ar
     9     7     4    1
    10     7     8    1
    11     8     9    1
    12     9    10    1
    13    10    12    1
    14    13    12    1
    15    13    14    1
    16    11    12    1
    17    11     7    1
    18    23    27   am
    19    24    27    1
    20    24    25    1
    21    25    26    1
    22    25    29    1
    23    25    30    1
    24    26    27    1
    25    16     1    1
    26    18    19   ar
    27    20    22   ar
    28     1     5   ar
    29     2     3   ar
    30     4     6   ar
    31    23    28    2
    32    14    15    3
    33    16    17    1
@<TRIPOS>MOLECULE
MolPort-047-073-850 MCULE-1850452322 PubChem-132772074
 30 33 0 0 0
SMALL
GASTEIGER

@<TRIPOS>ATOM
      1 C          12.4157   41.7640    6.1652 C.ar    1  UNL1        0.2218
      2 C          14.2398   43.2730    6.1730 C.ar    1  UNL1        0.1031
      3 C          14.7854   42.6248    7.2785 C.ar    1  UNL1        0.0355
      4 C          14.1023   41.5258    7.8114 C.ar    1  UNL1        0.0644
      5 N          13.0713   42.8343    5.6382 N.ar    1  UNL1       -0.2120
      6 N          12.9355   41.1210    7.2440 N.ar    1  UNL1       -0.2179
      7 C          14.6336   40.7844    8.9964 C.3     1  UNL1        0.0564
      8 C          16.1567   40.7697    8.9974 C.3     1  UNL1        0.0087
      9 C          16.6529   40.0097   10.2162 C.3     1  UNL1        0.0178
     10 C          16.0689   38.5934   10.2186 C.3     1  UNL1        0.0731
     11 C          14.0866   39.3513    9.0406 C.3     1  UNL1        0.0789
     12 N          14.5989   38.5879   10.1891 N.3     1  UNL1       -0.2596
     13 C          14.0740   39.1362   11.4369 C.3     1  UNL1        0.1795
     14 C          12.7382   39.6965   11.2137 C.1     1  UNL1        0.0912
     15 N          11.6837   40.1392   11.0373 N.1     1  UNL1       -0.1944
     16 N          11.1836   41.3014    5.6013 N.pl3   1  UNL1       -0.2628
     17 H          11.1861   41.0585    4.6472 H       1  UNL1        0.1570
     18 C           7.9867   41.7473    7.2241 C.ar    1  UNL1        0.1431
     19 C           7.9843   40.3971    7.5879 C.ar    1  UNL1        0.0619
     20 C           9.9488   41.1634    6.3114 C.ar    1  UNL1        0.1658
     21 S           9.4122   39.7307    6.9884 S.2     1  UNL1       -0.0507
     22 N           9.0734   42.1665    6.5195 N.ar    1  UNL1       -0.2193
     23 C           6.8903   42.6642    7.5758 C.2     1  UNL1        0.2676
     24 C           4.8034   42.9657    9.2595 C.3     1  UNL1        0.1622
     25 C           4.5680   41.8772   10.2380 C.3     1  UNL1        0.2998
     26 C           5.7520   41.2581    9.5975 C.3     1  UNL1        0.1622
     27 N           5.9793   42.3441    8.6280 N.am    1  UNL1       -0.2640
     28 O           6.7483   43.7457    6.9452 O.2     1  UNL1       -0.2682
     29 F           4.7847   42.2564   11.5490 F       1  UNL1       -0.2006
     30 F           3.3947   41.1812   10.0183 F       1  UNL1       -0.2006
@<TRIPOS>BOND
     1    18    23    1
     2    18    22   ar
     3    19    21   ar
     4    20    21   ar
     5    20    16    1
     6     1     6   ar
     7     2     5   ar
     8     3     4   ar
     9     7     4    1
    10     7     8    1
    11     8     9    1
    12     9    10    1
    13    10    12    1
    14    13    12    1
    15    13    14    1
    16    11    12    1
    17    11     7    1
    18    23    27   am
    19    24    27    1
    20    24    25    1
    21    25    26    1
    22    25    29    1
    23    25    30    1
    24    26    27    1
    25    16     1    1
    26    18    19   ar
    27    20    22   ar
    28     1     5   ar
    29     2     3   ar
    30     4     6   ar
    31    23    28    2
    32    14    15    3
    33    16    17    1
@<TRIPOS>MOLECULE
MolPort-047-073-850 MCULE-1850452322 PubChem-132772074
 30 33 0 0 0
SMALL
GASTEIGER

@<TRIPOS>ATOM
      1 C          11.1518   40.3672    9.8307 C.ar    1  UNL1        0.2218
      2 C          10.1746   41.2271   11.8081 C.ar    1  UNL1        0.1031
      3 C           9.0866   41.6995   11.0780 C.ar    1  UNL1        0.0355
      4 C           9.0662   41.4821    9.6957 C.ar    1  UNL1        0.0644
      5 N          11.1828   40.5729   11.1759 N.ar    1  UNL1       -0.2120
      6 N          10.0968   40.8223    9.1046 N.ar    1  UNL1       -0.2179
      7 C           7.9275   41.9621    8.8534 C.3     1  UNL1        0.0564
      8 C           8.2103   41.7453    7.3725 C.3     1  UNL1        0.0087
      9 C           7.0301   42.2440    6.5554 C.3     1  UNL1        0.0178
     10 C           6.7628   43.7182    6.8752 C.3     1  UNL1        0.0731
     11 C           7.6245   43.4412    9.1273 C.3     1  UNL1        0.0789
     12 N           6.5155   43.9506    8.3057 N.3     1  UNL1       -0.2596
     13 C           5.2594   43.3199    8.7026 C.3     1  UNL1        0.1795
     14 C           4.1388   44.2257    8.4346 C.1     1  UNL1        0.0912
     15 N           3.2540   44.9408    8.2227 N.1     1  UNL1       -0.1944
     16 N          12.2148   39.6773    9.1642 N.pl3   1  UNL1       -0.2628
     17 H          11.9705   38.9101    8.5976 H       1  UNL1        0.1570
     18 C          15.5247   41.0877    8.8362 C.ar    1  UNL1        0.1431
     19 C          16.0060   40.1750    9.7798 C.ar    1  UNL1        0.0619
     20 C          13.6032   40.0121    9.2543 C.ar    1  UNL1        0.1658
     21 S          14.6932   39.2289   10.2530 S.2     1  UNL1       -0.0507
     22 N          14.1974   40.9944    8.5486 N.ar    1  UNL1       -0.2193
     23 C          16.3893   42.0883    8.1896 C.2     1  UNL1        0.2676
     24 C          16.4001   44.0094    6.2949 C.3     1  UNL1        0.1622
     25 C          15.1305   44.2391    5.5648 C.3     1  UNL1        0.2998
     26 C          14.6171   43.1542    6.4337 C.3     1  UNL1        0.1622
     27 N          15.8827   42.9320    7.1548 N.am    1  UNL1       -0.2640
     28 O          17.5911   42.2069    8.5487 O.2     1  UNL1       -0.2682
     29 F          14.5594   45.4704    5.8235 F       1  UNL1       -0.2006
     30 F          15.1916   43.8934    4.2283 F       1  UNL1       -0.2006
@<TRIPOS>BOND
     1    18    23    1
     2    18    22   ar
     3    19    21   ar
     4    20    21   ar
     5    20    16    1
     6     1     6   ar
     7     2     5   ar
     8     3     4   ar
     9     7     4    1
    10     7     8    1
    11     8     9    1
    12     9    10    1
    13    10    12    1
    14    13    12    1
    15    13    14    1
    16    11    12    1
    17    11     7    1
    18    23    27   am
    19    24    27    1
    20    24    25    1
    21    25    26    1
    22    25    29    1
    23    25    30    1
    24    26    27    1
    25    16     1    1
    26    18    19   ar
    27    20    22   ar
    28     1     5   ar
    29     2     3   ar
    30     4     6   ar
    31    23    28    2
    32    14    15    3
    33    16    17    1
