@<TRIPOS>MOLECULE
MolPort-007-723-173 6818134 ChemDiv-E157-3683 MCULE-6786177504 PubChem-22517779 ZINC000006818134 ZINC06818134
 27 29 0 0 0
SMALL
GASTEIGER

@<TRIPOS>ATOM
      1 C          12.2145   41.0582    6.8378 C.2     1  UNL1        0.2511
      2 N          12.6324   42.2823    6.2173 N.am    1  UNL1       -0.2592
      3 O          13.0167   40.3901    7.5448 O.2     1  UNL1       -0.2698
      4 H          11.9596   42.7568    5.6775 H       1  UNL1        0.1571
      5 C          17.2340   43.1010    7.4651 C.ar    1  UNL1        0.1643
      6 C          15.9324   44.1488    6.1934 C.ar    1  UNL1        0.2195
      7 C          13.9296   42.8843    6.3038 C.ar    1  UNL1        0.1882
      8 N          17.9150   44.1647    6.9588 N.ar    1  UNL1       -0.1310
      9 N          17.0865   44.8357    6.1477 N.ar    1  UNL1       -0.1202
     10 N          14.9138   42.3520    7.0826 N.ar    1  UNL1       -0.1399
     11 N          15.9955   43.1055    6.9737 N.ar    1  UNL1       -0.1881
     12 S          14.4328   44.3170    5.4686 S.2     1  UNL1       -0.0111
     13 C          17.7900   42.0819    8.3993 C.3     1  UNL1        0.0677
     14 C          17.2244   40.2185    9.9241 C.3     1  UNL1        0.0005
     15 C          16.6645   41.3835    9.1360 C.3     1  UNL1        0.0080
     16 C          10.8348   40.5775    6.6467 C.ar    1  UNL1        0.0600
     17 C           9.8460   40.8744    7.5875 C.ar    1  UNL1        0.0448
     18 C           8.5260   40.4256    7.4228 C.ar    1  UNL1        0.1756
     19 C           8.1915   39.6560    6.2794 C.ar    1  UNL1        0.2061
     20 C           9.1870   39.3577    5.3333 C.ar    1  UNL1        0.1756
     21 C          10.4975   39.8192    5.5233 C.ar    1  UNL1        0.0448
     22 C           7.3195   42.0630    8.8422 C.3     1  UNL1        0.2526
     23 O           7.5561   40.7386    8.3824 O.3     1  UNL1       -0.4683
     24 C           5.6983   39.9064    6.1925 C.3     1  UNL1        0.2528
     25 O           6.8987   39.1644    6.0311 O.3     1  UNL1       -0.4654
     26 C           9.5871   38.6481    2.9936 C.3     1  UNL1        0.2526
     27 O           8.8493   38.5978    4.2074 O.3     1  UNL1       -0.4683
@<TRIPOS>BOND
     1    14    15    1
     2    15    13    1
     3    13     5    1
     4     6    12   ar
     5     7    12   ar
     6     7     2    1
     7     1    16    1
     8    17    18   ar
     9    18    23    1
    10    22    23    1
    11    19    25    1
    12    19    20   ar
    13    24    25    1
    14    20    27    1
    15    26    27    1
    16    21    16   ar
    17     8     9   ar
    18     2     1   am
    19    11    10   ar
    20    11     5   ar
    21    11     6   ar
    22     5     8   ar
    23     6     9   ar
    24     7    10   ar
    25     1     3    2
    26    16    17   ar
    27    18    19   ar
    28    20    21   ar
    29     2     4    1
@<TRIPOS>MOLECULE
MolPort-007-723-173 6818134 ChemDiv-E157-3683 MCULE-6786177504 PubChem-22517779 ZINC000006818134 ZINC06818134
 27 29 0 0 0
SMALL
GASTEIGER

@<TRIPOS>ATOM
      1 C          10.0960   42.2470    9.6491 C.2     1  UNL1        0.2511
      2 N           9.0137   41.9344    8.7609 N.am    1  UNL1       -0.2592
      3 O           9.9499   43.1034   10.5629 O.2     1  UNL1       -0.2698
      4 H           9.1913   41.2578    8.0681 H       1  UNL1        0.1571
      5 C           4.2097   42.3793    9.1148 C.ar    1  UNL1        0.1643
      6 C           5.7118   43.7976    8.7390 C.ar    1  UNL1        0.2195
      7 C           7.7006   42.5070    8.7799 C.ar    1  UNL1        0.1882
      8 N           3.6095   43.5923    8.9731 N.ar    1  UNL1       -0.1310
      9 N           4.5656   44.4991    8.7322 N.ar    1  UNL1       -0.1202
     10 N           6.5923   41.7457    9.0055 N.ar    1  UNL1       -0.1399
     11 N           5.5257   42.5270    8.9673 N.ar    1  UNL1       -0.1881
     12 S           7.3283   44.1816    8.5337 S.2     1  UNL1       -0.0111
     13 C           3.5111   41.0968    9.4109 C.3     1  UNL1        0.0677
     14 C           3.3464   41.6018   11.8265 C.3     1  UNL1        0.0005
     15 C           3.8721   40.6180   10.8029 C.3     1  UNL1        0.0080
     16 C          11.3904   41.5606    9.4916 C.ar    1  UNL1        0.0600
     17 C          11.7222   40.4803   10.3123 C.ar    1  UNL1        0.0448
     18 C          12.9504   39.8136   10.1773 C.ar    1  UNL1        0.1756
     19 C          13.8707   40.2464    9.1886 C.ar    1  UNL1        0.2061
     20 C          13.5360   41.3334    8.3632 C.ar    1  UNL1        0.1756
     21 C          12.3020   41.9808    8.5202 C.ar    1  UNL1        0.0448
     22 C          14.2245   38.8072   12.0521 C.3     1  UNL1        0.2526
     23 O          13.2556   38.7339   11.0142 O.3     1  UNL1       -0.4683
     24 C          16.3571   40.1252    9.4879 C.3     1  UNL1        0.2528
     25 O          15.1217   39.6410    8.9810 O.3     1  UNL1       -0.4654
     26 C          14.2276   42.8907    6.5648 C.3     1  UNL1        0.2526
     27 O          14.4492   41.7547    7.3898 O.3     1  UNL1       -0.4683
@<TRIPOS>BOND
     1    14    15    1
     2    15    13    1
     3    13     5    1
     4     6    12   ar
     5     7    12   ar
     6     7     2    1
     7     1    16    1
     8    17    18   ar
     9    18    23    1
    10    22    23    1
    11    19    25    1
    12    19    20   ar
    13    24    25    1
    14    20    27    1
    15    26    27    1
    16    21    16   ar
    17     8     9   ar
    18     2     1   am
    19    11    10   ar
    20    11     5   ar
    21    11     6   ar
    22     5     8   ar
    23     6     9   ar
    24     7    10   ar
    25     1     3    2
    26    16    17   ar
    27    18    19   ar
    28    20    21   ar
    29     2     4    1
@<TRIPOS>MOLECULE
MolPort-007-723-173 6818134 ChemDiv-E157-3683 MCULE-6786177504 PubChem-22517779 ZINC000006818134 ZINC06818134
 27 29 0 0 0
SMALL
GASTEIGER

@<TRIPOS>ATOM
      1 C           9.7594   42.2174    9.9417 C.2     1  UNL1        0.2511
      2 N           8.8855   42.2643    8.8050 N.am    1  UNL1       -0.2592
      3 O           9.4134   42.7323   11.0393 O.2     1  UNL1       -0.2698
      4 H           9.2139   41.8451    7.9769 H       1  UNL1        0.1571
      5 C           4.0894   42.8332    9.0798 C.ar    1  UNL1        0.1643
      6 C           5.6191   44.1733    8.5573 C.ar    1  UNL1        0.2195
      7 C           7.5833   42.8592    8.7527 C.ar    1  UNL1        0.1882
      8 N           3.5125   44.0335    8.8007 N.ar    1  UNL1       -0.1310
      9 N           4.4863   44.8904    8.4660 N.ar    1  UNL1       -0.1202
     10 N           6.4601   42.1481    9.0552 N.ar    1  UNL1       -0.1399
     11 N           5.4084   42.9395    8.9243 N.ar    1  UNL1       -0.1881
     12 S           7.2432   44.5026    8.3197 S.2     1  UNL1       -0.0111
     13 C           3.3659   41.6045    9.5126 C.3     1  UNL1        0.0677
     14 C           4.1081   40.1802   11.3935 C.3     1  UNL1        0.0005
     15 C           3.4181   41.4755   11.0219 C.3     1  UNL1        0.0080
     16 C          11.0737   41.5615    9.8247 C.ar    1  UNL1        0.0600
     17 C          11.9238   41.8665    8.7592 C.ar    1  UNL1        0.0448
     18 C          13.1796   41.2522    8.6308 C.ar    1  UNL1        0.1756
     19 C          13.5917   40.3041    9.6019 C.ar    1  UNL1        0.2061
     20 C          12.7359   39.9979   10.6737 C.ar    1  UNL1        0.1756
     21 C          11.4868   40.6269   10.7770 C.ar    1  UNL1        0.0448
     22 C          13.9094   42.8029    6.8380 C.3     1  UNL1        0.2526
     23 O          14.0102   41.5777    7.5522 O.3     1  UNL1       -0.4683
     24 C          16.0954   40.2777    9.4701 C.3     1  UNL1        0.2528
     25 O          14.8291   39.6398    9.5554 O.3     1  UNL1       -0.4654
     26 C          14.5165   38.8362   11.9456 C.3     1  UNL1        0.2526
     27 O          13.1495   39.0614   11.6281 O.3     1  UNL1       -0.4683
@<TRIPOS>BOND
     1    14    15    1
     2    15    13    1
     3    13     5    1
     4     6    12   ar
     5     7    12   ar
     6     7     2    1
     7     1    16    1
     8    17    18   ar
     9    18    23    1
    10    22    23    1
    11    19    25    1
    12    19    20   ar
    13    24    25    1
    14    20    27    1
    15    26    27    1
    16    21    16   ar
    17     8     9   ar
    18     2     1   am
    19    11    10   ar
    20    11     5   ar
    21    11     6   ar
    22     5     8   ar
    23     6     9   ar
    24     7    10   ar
    25     1     3    2
    26    16    17   ar
    27    18    19   ar
    28    20    21   ar
    29     2     4    1
@<TRIPOS>MOLECULE
MolPort-007-723-173 6818134 ChemDiv-E157-3683 MCULE-6786177504 PubChem-22517779 ZINC000006818134 ZINC06818134
 27 29 0 0 0
SMALL
GASTEIGER

@<TRIPOS>ATOM
      1 C          10.7210   41.1660    8.8665 C.2     1  UNL1        0.2511
      2 N          10.0133   42.1423    9.6436 N.am    1  UNL1       -0.2592
      3 O          10.1883   40.6464    7.8487 O.2     1  UNL1       -0.2698
      4 H          10.4834   42.5098   10.4268 H       1  UNL1        0.1571
      5 C           5.2183   42.3025    9.0239 C.ar    1  UNL1        0.1643
      6 C           6.6793   43.8088    8.9495 C.ar    1  UNL1        0.2195
      7 C           8.6917   42.6368    9.3956 C.ar    1  UNL1        0.1882
      8 N           4.5885   43.4790    8.7580 N.ar    1  UNL1       -0.1310
      9 N           5.5186   44.4419    8.7089 N.ar    1  UNL1       -0.1202
     10 N           7.6074   41.8104    9.3984 N.ar    1  UNL1       -0.1399
     11 N           6.5261   42.5280    9.1427 N.ar    1  UNL1       -0.1881
     12 S           8.2787   44.2883    9.0705 S.2     1  UNL1       -0.0111
     13 C           4.5511   40.9794    9.1807 C.3     1  UNL1        0.0677
     14 C           4.0816   40.2337   11.4918 C.3     1  UNL1        0.0005
     15 C           3.5526   41.0329   10.3199 C.3     1  UNL1        0.0080
     16 C          12.0833   40.7670    9.2619 C.ar    1  UNL1        0.0600
     17 C          13.1915   41.2394    8.5551 C.ar    1  UNL1        0.0448
     18 C          14.4970   40.8706    8.9167 C.ar    1  UNL1        0.1756
     19 C          14.6928   40.0017   10.0205 C.ar    1  UNL1        0.2061
     20 C          13.5772   39.5270   10.7312 C.ar    1  UNL1        0.1756
     21 C          12.2844   39.9118   10.3478 C.ar    1  UNL1        0.0448
     22 C          15.5295   42.5438    7.4048 C.3     1  UNL1        0.2526
     23 O          15.5885   41.3597    8.1897 O.3     1  UNL1       -0.4683
     24 C          17.1950   40.1576   10.0551 C.3     1  UNL1        0.2528
     25 O          15.9608   39.5792   10.4546 O.3     1  UNL1       -0.4654
     26 C          14.0283   37.2788   11.6694 C.3     1  UNL1        0.2526
     27 O          13.7784   38.6700   11.8193 O.3     1  UNL1       -0.4683
@<TRIPOS>BOND
     1    14    15    1
     2    15    13    1
     3    13     5    1
     4     6    12   ar
     5     7    12   ar
     6     7     2    1
     7     1    16    1
     8    17    18   ar
     9    18    23    1
    10    22    23    1
    11    19    25    1
    12    19    20   ar
    13    24    25    1
    14    20    27    1
    15    26    27    1
    16    21    16   ar
    17     8     9   ar
    18     2     1   am
    19    11    10   ar
    20    11     5   ar
    21    11     6   ar
    22     5     8   ar
    23     6     9   ar
    24     7    10   ar
    25     1     3    2
    26    16    17   ar
    27    18    19   ar
    28    20    21   ar
    29     2     4    1
@<TRIPOS>MOLECULE
MolPort-007-723-173 6818134 ChemDiv-E157-3683 MCULE-6786177504 PubChem-22517779 ZINC000006818134 ZINC06818134
 27 29 0 0 0
SMALL
GASTEIGER

@<TRIPOS>ATOM
      1 C           7.9825   42.3598    9.3078 C.2     1  UNL1        0.2511
      2 N           8.8463   41.3458    9.8405 N.am    1  UNL1       -0.2592
      3 O           8.4353   43.2496    8.5379 O.2     1  UNL1       -0.2698
      4 H           8.4323   40.6802   10.4362 H       1  UNL1        0.1571
      5 C          13.1867   41.6691    7.7292 C.ar    1  UNL1        0.1643
      6 C          12.5816   40.7752    9.5303 C.ar    1  UNL1        0.2195
      7 C          10.2503   41.2037    9.5935 C.ar    1  UNL1        0.1882
      8 N          14.2897   41.1307    8.3167 N.ar    1  UNL1       -0.1310
      9 N          13.9063   40.5587    9.4658 N.ar    1  UNL1       -0.1202
     10 N          10.8339   41.7151    8.4726 N.ar    1  UNL1       -0.1399
     11 N          12.1271   41.4390    8.5036 N.ar    1  UNL1       -0.1881
     12 S          11.3796   40.3990   10.6331 S.2     1  UNL1       -0.0111
     13 C          13.1698   42.4162    6.4400 C.3     1  UNL1        0.0677
     14 C          14.6849   43.8814    5.1458 C.3     1  UNL1        0.0005
     15 C          14.1054   43.6062    6.5170 C.3     1  UNL1        0.0080
     16 C           6.5527   42.3610    9.6642 C.ar    1  UNL1        0.0600
     17 C           5.6584   43.2013    8.9970 C.ar    1  UNL1        0.0448
     18 C           4.2928   43.2165    9.3222 C.ar    1  UNL1        0.1756
     19 C           3.8134   42.3622   10.3479 C.ar    1  UNL1        0.2061
     20 C           4.7138   41.5170   11.0186 C.ar    1  UNL1        0.1756
     21 C           6.0728   41.5225   10.6730 C.ar    1  UNL1        0.0448
     22 C           3.8604   45.0177    7.6729 C.3     1  UNL1        0.2526
     23 O           3.4202   44.0694    8.6364 O.3     1  UNL1       -0.4683
     24 C           1.9933   42.5032   12.0665 C.3     1  UNL1        0.2528
     25 O           2.4653   42.3093   10.7410 O.3     1  UNL1       -0.4654
     26 C           3.6585   39.4037   11.7660 C.3     1  UNL1        0.2526
     27 O           4.2333   40.6767   12.0296 O.3     1  UNL1       -0.4683
@<TRIPOS>BOND
     1    14    15    1
     2    15    13    1
     3    13     5    1
     4     6    12   ar
     5     7    12   ar
     6     7     2    1
     7     1    16    1
     8    17    18   ar
     9    18    23    1
    10    22    23    1
    11    19    25    1
    12    19    20   ar
    13    24    25    1
    14    20    27    1
    15    26    27    1
    16    21    16   ar
    17     8     9   ar
    18     2     1   am
    19    11    10   ar
    20    11     5   ar
    21    11     6   ar
    22     5     8   ar
    23     6     9   ar
    24     7    10   ar
    25     1     3    2
    26    16    17   ar
    27    18    19   ar
    28    20    21   ar
    29     2     4    1
@<TRIPOS>MOLECULE
MolPort-007-723-173 6818134 ChemDiv-E157-3683 MCULE-6786177504 PubChem-22517779 ZINC000006818134 ZINC06818134
 27 29 0 0 0
SMALL
GASTEIGER

@<TRIPOS>ATOM
      1 C           9.6041   41.7713    7.9536 C.2     1  UNL1        0.2511
      2 N           8.7604   42.2179    9.0244 N.am    1  UNL1       -0.2592
      3 O           9.2498   41.9188    6.7526 O.2     1  UNL1       -0.2698
      4 H           9.0932   42.0733    9.9396 H       1  UNL1        0.1571
      5 C           3.9890   42.9964    9.1946 C.ar    1  UNL1        0.1643
      6 C           5.5721   44.2125    8.5437 C.ar    1  UNL1        0.2195
      7 C           7.4826   42.8531    8.8969 C.ar    1  UNL1        0.1882
      8 N           3.4606   44.1807    8.7826 N.ar    1  UNL1       -0.1310
      9 N           4.4686   44.9583    8.3657 N.ar    1  UNL1       -0.1202
     10 N           6.3313   42.2225    9.2647 N.ar    1  UNL1       -0.1399
     11 N           5.3119   43.0347    9.0400 N.ar    1  UNL1       -0.1881
     12 S           7.2089   44.4518    8.2860 S.2     1  UNL1       -0.0111
     13 C           3.2162   41.8504    9.7514 C.3     1  UNL1        0.0677
     14 C           4.1990   40.3645   11.4670 C.3     1  UNL1        0.0005
     15 C           3.5129   41.6929   11.2294 C.3     1  UNL1        0.0080
     16 C          10.8968   41.1340    8.2606 C.ar    1  UNL1        0.0600
     17 C          12.0848   41.6641    7.7522 C.ar    1  UNL1        0.0448
     18 C          13.3258   41.0713    8.0338 C.ar    1  UNL1        0.1756
     19 C          13.3728   39.9122    8.8498 C.ar    1  UNL1        0.2061
     20 C          12.1771   39.3795    9.3610 C.ar    1  UNL1        0.1756
     21 C          10.9514   39.9924    9.0636 C.ar    1  UNL1        0.0448
     22 C          14.5048   42.7327    6.6191 C.3     1  UNL1        0.2526
     23 O          14.5001   41.6248    7.5102 O.3     1  UNL1       -0.4683
     24 C          15.5994   39.7929    9.9964 C.3     1  UNL1        0.2528
     25 O          14.5672   39.2518    9.1844 O.3     1  UNL1       -0.4654
     26 C          11.5341   37.0376    9.8509 C.3     1  UNL1        0.2526
     27 O          12.2314   38.2355   10.1656 O.3     1  UNL1       -0.4683
@<TRIPOS>BOND
     1    14    15    1
     2    15    13    1
     3    13     5    1
     4     6    12   ar
     5     7    12   ar
     6     7     2    1
     7     1    16    1
     8    17    18   ar
     9    18    23    1
    10    22    23    1
    11    19    25    1
    12    19    20   ar
    13    24    25    1
    14    20    27    1
    15    26    27    1
    16    21    16   ar
    17     8     9   ar
    18     2     1   am
    19    11    10   ar
    20    11     5   ar
    21    11     6   ar
    22     5     8   ar
    23     6     9   ar
    24     7    10   ar
    25     1     3    2
    26    16    17   ar
    27    18    19   ar
    28    20    21   ar
    29     2     4    1
@<TRIPOS>MOLECULE
MolPort-007-723-173 6818134 ChemDiv-E157-3683 MCULE-6786177504 PubChem-22517779 ZINC000006818134 ZINC06818134
 27 29 0 0 0
SMALL
GASTEIGER

@<TRIPOS>ATOM
      1 C          12.6095   40.8804    7.8846 C.2     1  UNL1        0.2511
      2 N          11.7928   41.1946    6.7478 N.am    1  UNL1       -0.2592
      3 O          12.1567   40.1727    8.8246 O.2     1  UNL1       -0.2698
      4 H          12.2040   41.7518    6.0480 H       1  UNL1        0.1571
      5 C           6.9616   41.0241    6.9284 C.ar    1  UNL1        0.1643
      6 C           8.3581   39.8077    5.9389 C.ar    1  UNL1        0.2195
      7 C          10.4393   40.7796    6.5276 C.ar    1  UNL1        0.1882
      8 N           6.2719   40.0672    6.2500 N.ar    1  UNL1       -0.1310
      9 N           7.1606   39.2889    5.6184 N.ar    1  UNL1       -0.1202
     10 N           9.3885   41.4423    7.0890 N.ar    1  UNL1       -0.1399
     11 N           8.2659   40.8477    6.7206 N.ar    1  UNL1       -0.1881
     12 S           9.9441   39.4332    5.5552 S.2     1  UNL1       -0.0111
     13 C           6.3559   42.1087    7.7513 C.3     1  UNL1        0.0677
     14 C           5.4574   44.4077    7.5957 C.3     1  UNL1        0.0005
     15 C           6.4682   43.4350    7.0264 C.3     1  UNL1        0.0080
     16 C          13.9904   41.3900    7.9538 C.ar    1  UNL1        0.0600
     17 C          14.9450   40.7406    8.7400 C.ar    1  UNL1        0.0448
     18 C          16.2655   41.2109    8.8185 C.ar    1  UNL1        0.1756
     19 C          16.6359   42.3672    8.0854 C.ar    1  UNL1        0.2061
     20 C          15.6748   43.0199    7.2946 C.ar    1  UNL1        0.1756
     21 C          14.3630   42.5280    7.2347 C.ar    1  UNL1        0.0448
     22 C          16.8409   39.5298   10.5489 C.3     1  UNL1        0.2526
     23 O          17.2006   40.5395    9.6148 O.3     1  UNL1       -0.4683
     24 C          18.2993   44.1646    7.5480 C.3     1  UNL1        0.2528
     25 O          17.9320   42.9097    8.1029 O.3     1  UNL1       -0.4654
     26 C          15.1423   44.8821    5.7498 C.3     1  UNL1        0.2526
     27 O          16.0478   44.1603    6.5740 O.3     1  UNL1       -0.4683
@<TRIPOS>BOND
     1    14    15    1
     2    15    13    1
     3    13     5    1
     4     6    12   ar
     5     7    12   ar
     6     7     2    1
     7     1    16    1
     8    17    18   ar
     9    18    23    1
    10    22    23    1
    11    19    25    1
    12    19    20   ar
    13    24    25    1
    14    20    27    1
    15    26    27    1
    16    21    16   ar
    17     8     9   ar
    18     2     1   am
    19    11    10   ar
    20    11     5   ar
    21    11     6   ar
    22     5     8   ar
    23     6     9   ar
    24     7    10   ar
    25     1     3    2
    26    16    17   ar
    27    18    19   ar
    28    20    21   ar
    29     2     4    1
@<TRIPOS>MOLECULE
MolPort-007-723-173 6818134 ChemDiv-E157-3683 MCULE-6786177504 PubChem-22517779 ZINC000006818134 ZINC06818134
 27 29 0 0 0
SMALL
GASTEIGER

@<TRIPOS>ATOM
      1 C          12.6526   40.8071    7.7574 C.2     1  UNL1        0.2511
      2 N          11.7427   41.3092    6.7684 N.am    1  UNL1       -0.2592
      3 O          12.3077   39.8746    8.5328 O.2     1  UNL1       -0.2698
      4 H          12.0715   42.0382    6.1942 H       1  UNL1        0.1571
      5 C           6.9163   41.0049    6.8902 C.ar    1  UNL1        0.1643
      6 C           8.3578   39.8286    5.9169 C.ar    1  UNL1        0.2195
      7 C          10.4040   40.8571    6.5315 C.ar    1  UNL1        0.1882
      8 N           6.2615   40.0300    6.2029 N.ar    1  UNL1       -0.1310
      9 N           7.1791   39.2772    5.5816 N.ar    1  UNL1       -0.1202
     10 N           9.3285   41.4900    7.0805 N.ar    1  UNL1       -0.1399
     11 N           8.2274   40.8649    6.6981 N.ar    1  UNL1       -0.1881
     12 S           9.9580   39.4985    5.5523 S.2     1  UNL1       -0.0111
     13 C           6.2709   42.0715    7.7064 C.3     1  UNL1        0.0677
     14 C           5.4492   44.4032    7.6331 C.3     1  UNL1        0.0005
     15 C           6.4121   43.4125    7.0141 C.3     1  UNL1        0.0080
     16 C          14.0027   41.3871    7.8677 C.ar    1  UNL1        0.0600
     17 C          14.3295   42.5546    7.1742 C.ar    1  UNL1        0.0448
     18 C          15.6101   43.1222    7.2669 C.ar    1  UNL1        0.1756
     19 C          16.5898   42.4973    8.0801 C.ar    1  UNL1        0.2061
     20 C          16.2602   41.3226    8.7777 C.ar    1  UNL1        0.1756
     21 C          14.9729   40.7776    8.6667 C.ar    1  UNL1        0.0448
     22 C          14.9699   44.9534    5.7215 C.3     1  UNL1        0.2526
     23 O          15.9089   44.2930    6.5603 O.3     1  UNL1       -0.4683
     24 C          18.4661   44.0427    7.4654 C.3     1  UNL1        0.2528
     25 O          17.8960   42.9924    8.2333 O.3     1  UNL1       -0.4654
     26 C          16.9710   39.5532   10.3593 C.3     1  UNL1        0.2526
     27 O          17.2322   40.7116    9.5783 O.3     1  UNL1       -0.4683
@<TRIPOS>BOND
     1    14    15    1
     2    15    13    1
     3    13     5    1
     4     6    12   ar
     5     7    12   ar
     6     7     2    1
     7     1    16    1
     8    17    18   ar
     9    18    23    1
    10    22    23    1
    11    19    25    1
    12    19    20   ar
    13    24    25    1
    14    20    27    1
    15    26    27    1
    16    21    16   ar
    17     8     9   ar
    18     2     1   am
    19    11    10   ar
    20    11     5   ar
    21    11     6   ar
    22     5     8   ar
    23     6     9   ar
    24     7    10   ar
    25     1     3    2
    26    16    17   ar
    27    18    19   ar
    28    20    21   ar
    29     2     4    1
@<TRIPOS>MOLECULE
MolPort-007-723-173 6818134 ChemDiv-E157-3683 MCULE-6786177504 PubChem-22517779 ZINC000006818134 ZINC06818134
 27 29 0 0 0
SMALL
GASTEIGER

@<TRIPOS>ATOM
      1 C           8.0333   42.3202    9.0553 C.2     1  UNL1        0.2511
      2 N           8.8166   41.1434    9.2996 N.am    1  UNL1       -0.2592
      3 O           8.5745   43.3734    8.6223 O.2     1  UNL1       -0.2698
      4 H           8.3354   40.3541    9.6380 H       1  UNL1        0.1571
      5 C          13.4736   40.0909   10.0779 C.ar    1  UNL1        0.1643
      6 C          12.4960   40.9170    8.4134 C.ar    1  UNL1        0.2195
      7 C          10.2282   41.0006    9.1010 C.ar    1  UNL1        0.1882
      8 N          14.4098   40.3179    9.1169 N.ar    1  UNL1       -0.1310
      9 N          13.7889   40.8460    8.0538 N.ar    1  UNL1       -0.1202
     10 N          11.0375   40.4851   10.0695 N.ar    1  UNL1       -0.1399
     11 N          12.2812   40.4698    9.6196 N.ar    1  UNL1       -0.1881
     12 S          11.0924   41.4370    7.6635 S.2     1  UNL1       -0.0111
     13 C          13.7352   39.4930   11.4175 C.3     1  UNL1        0.0677
     14 C          14.9687   37.3602   11.6339 C.3     1  UNL1        0.0005
     15 C          15.1100   38.8553   11.4423 C.3     1  UNL1        0.0080
     16 C           6.5827   42.2974    9.3131 C.ar    1  UNL1        0.0600
     17 C           5.7836   43.3855    8.9544 C.ar    1  UNL1        0.0448
     18 C           4.3999   43.3822    9.1917 C.ar    1  UNL1        0.1756
     19 C           3.8034   42.2523    9.8075 C.ar    1  UNL1        0.2061
     20 C           4.6080   41.1580   10.1681 C.ar    1  UNL1        0.1756
     21 C           5.9877   41.1884    9.9190 C.ar    1  UNL1        0.0448
     22 C           3.7903   45.1720    7.5866 C.3     1  UNL1        0.2526
     23 O           3.6244   44.4871    8.8214 O.3     1  UNL1       -0.4683
     24 C           1.8508   42.2200   11.3800 C.3     1  UNL1        0.2528
     25 O           2.4287   42.1600   10.0839 O.3     1  UNL1       -0.4654
     26 C           4.0589   39.8164   12.1771 C.3     1  UNL1        0.2526
     27 O           4.0122   40.0466   10.7753 O.3     1  UNL1       -0.4683
@<TRIPOS>BOND
     1    14    15    1
     2    15    13    1
     3    13     5    1
     4     6    12   ar
     5     7    12   ar
     6     7     2    1
     7     1    16    1
     8    17    18   ar
     9    18    23    1
    10    22    23    1
    11    19    25    1
    12    19    20   ar
    13    24    25    1
    14    20    27    1
    15    26    27    1
    16    21    16   ar
    17     8     9   ar
    18     2     1   am
    19    11    10   ar
    20    11     5   ar
    21    11     6   ar
    22     5     8   ar
    23     6     9   ar
    24     7    10   ar
    25     1     3    2
    26    16    17   ar
    27    18    19   ar
    28    20    21   ar
    29     2     4    1
@<TRIPOS>MOLECULE
MolPort-007-723-173 6818134 ChemDiv-E157-3683 MCULE-6786177504 PubChem-22517779 ZINC000006818134 ZINC06818134
 27 29 0 0 0
SMALL
GASTEIGER

@<TRIPOS>ATOM
      1 C           9.7024   40.6621    8.6511 C.2     1  UNL1        0.2511
      2 N           8.7512   41.0907    9.6358 N.am    1  UNL1       -0.2592
      3 O           9.5584   40.9779    7.4390 O.2     1  UNL1       -0.2698
      4 H           8.9193   40.8107   10.5646 H       1  UNL1        0.1571
      5 C           4.1192   42.4025    9.1613 C.ar    1  UNL1        0.1643
      6 C           5.8999   43.4972    8.9623 C.ar    1  UNL1        0.2195
      7 C           7.5815   41.8850    9.4046 C.ar    1  UNL1        0.1882
      8 N           3.7858   43.6857    8.8548 N.ar    1  UNL1       -0.1310
      9 N           4.9203   44.3863    8.7262 N.ar    1  UNL1       -0.1202
     10 N           6.3290   41.3526    9.4847 N.ar    1  UNL1       -0.1399
     11 N           5.4463   42.3032    9.2266 N.ar    1  UNL1       -0.1881
     12 S           7.5718   43.5719    9.0074 S.2     1  UNL1       -0.0111
     13 C           3.1557   41.2929    9.4079 C.3     1  UNL1        0.0677
     14 C           3.5604   41.3566   11.8470 C.3     1  UNL1        0.0005
     15 C           3.5937   40.4824   10.6115 C.3     1  UNL1        0.0080
     16 C          10.8582   39.8449    9.0606 C.ar    1  UNL1        0.0600
     17 C          10.7236   38.4652    9.2311 C.ar    1  UNL1        0.0448
     18 C          11.8131   37.6700    9.6206 C.ar    1  UNL1        0.1756
     19 C          13.0735   38.2804    9.8451 C.ar    1  UNL1        0.2061
     20 C          13.2081   39.6687    9.6732 C.ar    1  UNL1        0.1756
     21 C          12.1028   40.4386    9.2834 C.ar    1  UNL1        0.0448
     22 C          12.0155   35.5999   10.9716 C.3     1  UNL1        0.2526
     23 O          11.6483   36.2896    9.7838 O.3     1  UNL1       -0.4683
     24 C          14.8626   37.6831   11.4970 C.3     1  UNL1        0.2528
     25 O          14.2184   37.5658   10.2365 O.3     1  UNL1       -0.4654
     26 C          15.1915   40.9187    8.8722 C.3     1  UNL1        0.2526
     27 O          14.4550   40.2639    9.8965 O.3     1  UNL1       -0.4683
@<TRIPOS>BOND
     1    14    15    1
     2    15    13    1
     3    13     5    1
     4     6    12   ar
     5     7    12   ar
     6     7     2    1
     7     1    16    1
     8    17    18   ar
     9    18    23    1
    10    22    23    1
    11    19    25    1
    12    19    20   ar
    13    24    25    1
    14    20    27    1
    15    26    27    1
    16    21    16   ar
    17     8     9   ar
    18     2     1   am
    19    11    10   ar
    20    11     5   ar
    21    11     6   ar
    22     5     8   ar
    23     6     9   ar
    24     7    10   ar
    25     1     3    2
    26    16    17   ar
    27    18    19   ar
    28    20    21   ar
    29     2     4    1
