@<TRIPOS>MOLECULE
MolPort-020-275-231 MCULE-7586230728 PubChem-110252908
 27 29 0 0 0
SMALL
GASTEIGER

@<TRIPOS>ATOM
      1 C          13.1402   42.2829    6.4611 C.ar    1  UNL1        0.1533
      2 C          14.7584   41.5717    8.0470 C.ar    1  UNL1        0.0808
      3 C          15.6594   42.5236    7.5537 C.ar    1  UNL1        0.1137
      4 C          14.0468   43.2329    5.9738 C.ar    1  UNL1        0.1332
      5 N          13.5234   41.4768    7.4870 N.ar    1  UNL1       -0.2316
      6 N          15.2828   43.3318    6.5293 N.ar    1  UNL1       -0.2382
      7 C          15.1281   40.6578    9.1712 C.3     1  UNL1        0.0617
      8 C          16.6453   40.6116    9.3698 C.3     1  UNL1        0.0094
      9 C          17.0019   39.6894   10.5336 C.3     1  UNL1        0.0219
     10 C          16.4553   38.2884   10.2756 C.3     1  UNL1        0.0935
     11 C          14.5683   39.2534    8.9420 C.3     1  UNL1        0.0994
     12 C          14.0883   37.6146   10.7997 C.2     1  UNL1        0.2559
     13 N          15.0214   38.3674   10.0110 N.am    1  UNL1       -0.2771
     14 O          14.5015   36.8510   11.7129 O.2     1  UNL1       -0.2721
     15 C          12.6214   37.6922   10.5349 C.3     1  UNL1        0.2272
     16 C          11.5179   35.7998   10.7885 C.3     1  UNL1        0.1748
     17 O          12.2091   36.5545    9.8419 O.3     1  UNL1       -0.3417
     18 N          11.8227   42.1334    5.9132 N.pl3   1  UNL1       -0.2667
     19 H          11.3978   42.9525    5.5699 H       1  UNL1        0.1565
     20 C           9.4974   38.9247    3.0816 C.3     1  UNL1        0.0522
     21 C           9.9230   39.3664    4.4351 C.ar    1  UNL1        0.0634
     22 C           9.5732   38.6148    5.5554 C.ar    1  UNL1        0.0296
     23 C           9.9909   39.0620    6.8071 C.ar    1  UNL1        0.0634
     24 C          11.0539   40.9276    5.8083 C.ar    1  UNL1        0.2211
     25 C           9.6398   38.2907    8.0276 C.3     1  UNL1        0.0522
     26 N          10.7196   40.2036    6.9117 N.ar    1  UNL1       -0.2179
     27 N          10.6529   40.5031    4.5807 N.ar    1  UNL1       -0.2179
@<TRIPOS>BOND
     1    20    21    1
     2    21    27   ar
     3    22    23   ar
     4    24    26   ar
     5    24    18    1
     6     2     5   ar
     7     3     6   ar
     8     4     1   ar
     9     7     2    1
    10     7     8    1
    11     8     9    1
    12     9    10    1
    13    10    13    1
    14    11    13    1
    15    11     7    1
    16    15    12    1
    17    15    17    1
    18    16    17    1
    19    25    23    1
    20    18     1    1
    21    13    12   am
    22    21    22   ar
    23    23    26   ar
    24    24    27   ar
    25     1     5   ar
    26     2     3   ar
    27     4     6   ar
    28    12    14    2
    29    18    19    1
@<TRIPOS>MOLECULE
MolPort-020-275-231 MCULE-7586230728 PubChem-110252908
 27 29 0 0 0
SMALL
GASTEIGER

@<TRIPOS>ATOM
      1 C          13.2499   42.5208    6.5215 C.ar    1  UNL1        0.1533
      2 C          15.0462   41.8787    7.9359 C.ar    1  UNL1        0.0808
      3 C          15.8911   42.7739    7.2682 C.ar    1  UNL1        0.1137
      4 C          14.1012   43.4143    5.8591 C.ar    1  UNL1        0.1332
      5 N          13.7486   41.7760    7.5441 N.ar    1  UNL1       -0.2316
      6 N          15.3992   43.5206    6.2460 N.ar    1  UNL1       -0.2382
      7 C          15.5424   41.0334    9.0651 C.3     1  UNL1        0.0617
      8 C          17.0681   40.9120    9.0355 C.3     1  UNL1        0.0094
      9 C          17.5571   40.0621   10.2064 C.3     1  UNL1        0.0219
     10 C          16.9115   38.6807   10.1538 C.3     1  UNL1        0.0935
     11 C          14.8879   39.6515    9.0432 C.3     1  UNL1        0.0994
     12 C          14.6254   38.1918   11.0846 C.2     1  UNL1        0.2559
     13 N          15.4592   38.8247   10.1030 N.am    1  UNL1       -0.2771
     14 O          15.1388   37.4772   11.9866 O.2     1  UNL1       -0.2721
     15 C          13.1405   38.3363   11.0386 C.3     1  UNL1        0.2272
     16 C          11.8724   40.1171   10.7490 C.3     1  UNL1        0.1748
     17 O          12.7669   39.5347   11.6457 O.3     1  UNL1       -0.3417
     18 N          11.8711   42.3664    6.1558 N.pl3   1  UNL1       -0.2667
     19 H          11.3632   43.1970    6.0098 H       1  UNL1        0.1565
     20 C           9.8635   38.4041    8.1535 C.3     1  UNL1        0.0522
     21 C          10.1716   39.2141    6.9463 C.ar    1  UNL1        0.0634
     22 C           9.7603   38.7754    5.6892 C.ar    1  UNL1        0.0296
     23 C          10.0684   39.5627    4.5818 C.ar    1  UNL1        0.0634
     24 C          11.1482   41.1407    5.9788 C.ar    1  UNL1        0.2211
     25 C           9.6485   39.1320    3.2230 C.3     1  UNL1        0.0522
     26 N          10.7528   40.7247    4.7443 N.ar    1  UNL1       -0.2179
     27 N          10.8545   40.3824    7.0681 N.ar    1  UNL1       -0.2179
@<TRIPOS>BOND
     1    20    21    1
     2    21    27   ar
     3    22    23   ar
     4    24    26   ar
     5    24    18    1
     6     2     5   ar
     7     3     6   ar
     8     4     1   ar
     9     7     2    1
    10     7     8    1
    11     8     9    1
    12     9    10    1
    13    10    13    1
    14    11    13    1
    15    11     7    1
    16    15    12    1
    17    15    17    1
    18    16    17    1
    19    25    23    1
    20    18     1    1
    21    13    12   am
    22    21    22   ar
    23    23    26   ar
    24    24    27   ar
    25     1     5   ar
    26     2     3   ar
    27     4     6   ar
    28    12    14    2
    29    18    19    1
@<TRIPOS>MOLECULE
MolPort-020-275-231 MCULE-7586230728 PubChem-110252908
 27 29 0 0 0
SMALL
GASTEIGER

@<TRIPOS>ATOM
      1 C          13.6637   40.7937    9.3972 C.ar    1  UNL1        0.1533
      2 C          11.4508   41.6032    9.6927 C.ar    1  UNL1        0.0808
      3 C          11.2849   40.7479   10.7892 C.ar    1  UNL1        0.1137
      4 C          13.4902   39.9416   10.4953 C.ar    1  UNL1        0.1332
      5 N          12.6354   41.6025    9.0261 N.ar    1  UNL1       -0.2316
      6 N          12.3080   39.9376   11.1649 N.ar    1  UNL1       -0.2382
      7 C          10.3527   42.5113    9.2397 C.3     1  UNL1        0.0617
      8 C           9.9528   43.4900   10.3468 C.3     1  UNL1        0.0094
      9 C           8.8448   44.4211    9.8593 C.3     1  UNL1        0.0219
     10 C           7.6375   43.6042    9.4084 C.3     1  UNL1        0.0935
     11 C           9.1416   41.7097    8.7610 C.3     1  UNL1        0.0994
     12 C           7.4411   42.5862    7.1157 C.2     1  UNL1        0.2559
     13 N           8.0588   42.6249    8.4105 N.am    1  UNL1       -0.2771
     14 O           6.5038   43.3809    6.8366 O.2     1  UNL1       -0.2721
     15 C           7.8682   41.5884    6.0911 C.3     1  UNL1        0.2272
     16 C           6.8098   39.6594    6.2386 C.3     1  UNL1        0.1748
     17 O           6.7530   40.9027    5.6107 O.3     1  UNL1       -0.3417
     18 N          14.8892   40.8399    8.6527 N.pl3   1  UNL1       -0.2667
     19 H          15.4288   40.0164    8.6497 H       1  UNL1        0.1565
     20 C          18.5566   43.9530    7.8917 C.3     1  UNL1        0.0522
     21 C          17.1986   43.4627    7.5402 C.ar    1  UNL1        0.0634
     22 C          16.4787   44.0779    6.5178 C.ar    1  UNL1        0.0296
     23 C          15.2088   43.5892    6.2181 C.ar    1  UNL1        0.0634
     24 C          15.4183   41.9483    7.9126 C.ar    1  UNL1        0.2211
     25 C          14.4072   44.2159    5.1352 C.3     1  UNL1        0.0522
     26 N          14.7033   42.5393    6.9162 N.ar    1  UNL1       -0.2179
     27 N          16.6586   42.4148    8.2158 N.ar    1  UNL1       -0.2179
@<TRIPOS>BOND
     1    20    21    1
     2    21    27   ar
     3    22    23   ar
     4    24    26   ar
     5    24    18    1
     6     2     5   ar
     7     3     6   ar
     8     4     1   ar
     9     7     2    1
    10     7     8    1
    11     8     9    1
    12     9    10    1
    13    10    13    1
    14    11    13    1
    15    11     7    1
    16    15    12    1
    17    15    17    1
    18    16    17    1
    19    25    23    1
    20    18     1    1
    21    13    12   am
    22    21    22   ar
    23    23    26   ar
    24    24    27   ar
    25     1     5   ar
    26     2     3   ar
    27     4     6   ar
    28    12    14    2
    29    18    19    1
@<TRIPOS>MOLECULE
MolPort-020-275-231 MCULE-7586230728 PubChem-110252908
 27 29 0 0 0
SMALL
GASTEIGER

@<TRIPOS>ATOM
      1 C          13.8378   40.4148    9.3703 C.ar    1  UNL1        0.1533
      2 C          11.5071   40.2855    8.9338 C.ar    1  UNL1        0.0808
      3 C          11.2823   39.8829   10.2561 C.ar    1  UNL1        0.1137
      4 C          13.6047   40.0123   10.6915 C.ar    1  UNL1        0.1332
      5 N          12.7788   40.5400    8.5266 N.ar    1  UNL1       -0.2316
      6 N          12.3358   39.7559   11.1038 N.ar    1  UNL1       -0.2382
      7 C          10.3800   40.4366    7.9629 C.3     1  UNL1        0.0617
      8 C           9.0275   40.4247    8.6800 C.3     1  UNL1        0.0094
      9 C           7.8909   40.5997    7.6751 C.3     1  UNL1        0.0219
     10 C           7.9474   39.4936    6.6256 C.3     1  UNL1        0.0935
     11 C          10.4336   39.3500    6.8883 C.3     1  UNL1        0.0994
     12 C           9.4226   39.5997    4.5899 C.2     1  UNL1        0.2559
     13 N           9.2721   39.4737    6.0115 N.am    1  UNL1       -0.2771
     14 O           8.4064   39.6987    3.8514 O.2     1  UNL1       -0.2721
     15 C          10.7739   39.5813    3.9565 C.3     1  UNL1        0.2272
     16 C          10.0873   37.6325    3.1860 C.3     1  UNL1        0.1748
     17 O          11.1860   38.2625    3.7686 O.3     1  UNL1       -0.3417
     18 N          15.1559   40.6984    8.8798 N.pl3   1  UNL1       -0.2667
     19 H          15.8456   40.0212    9.0666 H       1  UNL1        0.1565
     20 C          14.1630   44.1001    5.5387 C.3     1  UNL1        0.0522
     21 C          15.1044   43.5098    6.5253 C.ar    1  UNL1        0.0634
     22 C          16.3611   44.0807    6.7172 C.ar    1  UNL1        0.0296
     23 C          17.2152   43.4980    7.6512 C.ar    1  UNL1        0.0634
     24 C          15.5837   41.8553    8.1485 C.ar    1  UNL1        0.2211
     25 C          18.5641   44.0750    7.8869 C.3     1  UNL1        0.0522
     26 N          16.8146   42.4021    8.3466 N.ar    1  UNL1       -0.2179
     27 N          14.7400   42.4134    7.2403 N.ar    1  UNL1       -0.2179
@<TRIPOS>BOND
     1    20    21    1
     2    21    27   ar
     3    22    23   ar
     4    24    26   ar
     5    24    18    1
     6     2     5   ar
     7     3     6   ar
     8     4     1   ar
     9     7     2    1
    10     7     8    1
    11     8     9    1
    12     9    10    1
    13    10    13    1
    14    11    13    1
    15    11     7    1
    16    15    12    1
    17    15    17    1
    18    16    17    1
    19    25    23    1
    20    18     1    1
    21    13    12   am
    22    21    22   ar
    23    23    26   ar
    24    24    27   ar
    25     1     5   ar
    26     2     3   ar
    27     4     6   ar
    28    12    14    2
    29    18    19    1
@<TRIPOS>MOLECULE
MolPort-020-275-231 MCULE-7586230728 PubChem-110252908
 27 29 0 0 0
SMALL
GASTEIGER

@<TRIPOS>ATOM
      1 C          12.7828   42.1622    6.4530 C.ar    1  UNL1        0.1533
      2 C          14.0064   41.0322    8.1457 C.ar    1  UNL1        0.0808
      3 C          15.1231   41.8315    7.8713 C.ar    1  UNL1        0.1137
      4 C          13.9039   42.9581    6.1849 C.ar    1  UNL1        0.1332
      5 N          12.8667   41.2189    7.4288 N.ar    1  UNL1       -0.2316
      6 N          15.0459   42.7754    6.8979 N.ar    1  UNL1       -0.2382
      7 C          14.0440   39.9782    9.2056 C.3     1  UNL1        0.0617
      8 C          12.9253   40.1846   10.2301 C.3     1  UNL1        0.0094
      9 C          12.9679   39.0884   11.2926 C.3     1  UNL1        0.0219
     10 C          14.3286   39.0834   11.9830 C.3     1  UNL1        0.0935
     11 C          15.4093   39.9418    9.8935 C.3     1  UNL1        0.0994
     12 C          16.3439   37.9019   11.0479 C.2     1  UNL1        0.2559
     13 N          15.3824   38.9651   10.9790 N.am    1  UNL1       -0.2771
     14 O          16.3063   37.0740   11.9970 O.2     1  UNL1       -0.2721
     15 C          17.4225   37.7751   10.0240 C.3     1  UNL1        0.2272
     16 C          17.9377   36.0110    8.8050 C.3     1  UNL1        0.1748
     17 O          16.9678   37.0007    8.9572 O.3     1  UNL1       -0.3417
     18 N          11.5513   42.3103    5.7319 N.pl3   1  UNL1       -0.2667
     19 H          11.3958   43.1861    5.3100 H       1  UNL1        0.1565
     20 C           7.3043   40.4369    7.2064 C.3     1  UNL1        0.0522
     21 C           8.4575   40.4157    6.2694 C.ar    1  UNL1        0.0634
     22 C           8.5148   39.4603    5.2565 C.ar    1  UNL1        0.0296
     23 C           9.6123   39.4730    4.3983 C.ar    1  UNL1        0.0634
     24 C          10.5211   41.3285    5.5554 C.ar    1  UNL1        0.2211
     25 C           9.7130   38.4720    3.3048 C.3     1  UNL1        0.0522
     26 N          10.5908   40.4011    4.5612 N.ar    1  UNL1       -0.2179
     27 N           9.4561   41.3277    6.4002 N.ar    1  UNL1       -0.2179
@<TRIPOS>BOND
     1    20    21    1
     2    21    27   ar
     3    22    23   ar
     4    24    26   ar
     5    24    18    1
     6     2     5   ar
     7     3     6   ar
     8     4     1   ar
     9     7     2    1
    10     7     8    1
    11     8     9    1
    12     9    10    1
    13    10    13    1
    14    11    13    1
    15    11     7    1
    16    15    12    1
    17    15    17    1
    18    16    17    1
    19    25    23    1
    20    18     1    1
    21    13    12   am
    22    21    22   ar
    23    23    26   ar
    24    24    27   ar
    25     1     5   ar
    26     2     3   ar
    27     4     6   ar
    28    12    14    2
    29    18    19    1
@<TRIPOS>MOLECULE
MolPort-020-275-231 MCULE-7586230728 PubChem-110252908
 27 29 0 0 0
SMALL
GASTEIGER

@<TRIPOS>ATOM
      1 C          11.1429   41.2811    7.1254 C.ar    1  UNL1        0.1533
      2 C           9.0386   41.9085    8.0297 C.ar    1  UNL1        0.0808
      3 C           8.5227   42.0425    6.7348 C.ar    1  UNL1        0.1137
      4 C          10.6193   41.4168    5.8334 C.ar    1  UNL1        0.1332
      5 N          10.3349   41.5320    8.1899 N.ar    1  UNL1       -0.2316
      6 N           9.3245   41.7935    5.6672 N.ar    1  UNL1       -0.2382
      7 C           8.1958   42.1744    9.2358 C.3     1  UNL1        0.0617
      8 C           8.9831   41.9284   10.5254 C.3     1  UNL1        0.0094
      9 C           8.1126   42.2237   11.7449 C.3     1  UNL1        0.0219
     10 C           6.8578   41.3561   11.7128 C.3     1  UNL1        0.0935
     11 C           6.9207   41.3307    9.2096 C.3     1  UNL1        0.0994
     12 C           4.7938   41.9661   10.4094 C.2     1  UNL1        0.2559
     13 N           6.1664   41.5487   10.4411 N.am    1  UNL1       -0.2771
     14 O           4.1598   42.1420   11.4841 O.2     1  UNL1       -0.2721
     15 C           4.0820   42.1658    9.1127 C.3     1  UNL1        0.2272
     16 C           4.0465   44.2589    8.4194 C.3     1  UNL1        0.1748
     17 O           3.3223   43.3337    9.1696 O.3     1  UNL1       -0.3417
     18 N          12.5022   40.8870    7.3608 N.pl3   1  UNL1       -0.2667
     19 H          12.6484   39.9404    7.5884 H       1  UNL1        0.1565
     20 C          17.0552   41.7507    8.8590 C.3     1  UNL1        0.0522
     21 C          15.8849   42.1367    8.0287 C.ar    1  UNL1        0.0634
     22 C          15.9453   43.2735    7.2248 C.ar    1  UNL1        0.0296
     23 C          14.8273   43.6022    6.4611 C.ar    1  UNL1        0.0634
     24 C          13.6722   41.7141    7.3026 C.ar    1  UNL1        0.2211
     25 C          14.8494   44.8060    5.5902 C.3     1  UNL1        0.0522
     26 N          13.7167   42.8219    6.5126 N.ar    1  UNL1       -0.2179
     27 N          14.7557   41.3814    8.0532 N.ar    1  UNL1       -0.2179
@<TRIPOS>BOND
     1    20    21    1
     2    21    27   ar
     3    22    23   ar
     4    24    26   ar
     5    24    18    1
     6     2     5   ar
     7     3     6   ar
     8     4     1   ar
     9     7     2    1
    10     7     8    1
    11     8     9    1
    12     9    10    1
    13    10    13    1
    14    11    13    1
    15    11     7    1
    16    15    12    1
    17    15    17    1
    18    16    17    1
    19    25    23    1
    20    18     1    1
    21    13    12   am
    22    21    22   ar
    23    23    26   ar
    24    24    27   ar
    25     1     5   ar
    26     2     3   ar
    27     4     6   ar
    28    12    14    2
    29    18    19    1
@<TRIPOS>MOLECULE
MolPort-020-275-231 MCULE-7586230728 PubChem-110252908
 27 29 0 0 0
SMALL
GASTEIGER

@<TRIPOS>ATOM
      1 C          14.0684   42.3425    6.8936 C.ar    1  UNL1        0.1533
      2 C          15.7443   41.6190    8.4126 C.ar    1  UNL1        0.0808
      3 C          16.5858   42.6488    7.9737 C.ar    1  UNL1        0.1137
      4 C          14.9157   43.3703    6.4605 C.ar    1  UNL1        0.1332
      5 N          14.5086   41.4935    7.8602 N.ar    1  UNL1       -0.2316
      6 N          16.1522   43.5001    7.0085 N.ar    1  UNL1       -0.2382
      7 C          16.1782   40.6555    9.4705 C.3     1  UNL1        0.0617
      8 C          17.6821   40.3827    9.3863 C.3     1  UNL1        0.0094
      9 C          18.1094   39.4126   10.4857 C.3     1  UNL1        0.0219
     10 C          17.3239   38.1100   10.3664 C.3     1  UNL1        0.0935
     11 C          15.3847   39.3513    9.3820 C.3     1  UNL1        0.0994
     12 C          15.0229   37.7947   11.3348 C.2     1  UNL1        0.2559
     13 N          15.8933   38.4032   10.3695 N.am    1  UNL1       -0.2771
     14 O          15.4819   36.9742   12.1737 O.2     1  UNL1       -0.2721
     15 C          13.5601   38.0914   11.3438 C.3     1  UNL1        0.2272
     16 C          12.3311   39.8968   11.0383 C.3     1  UNL1        0.1748
     17 O          13.3453   39.3764   11.8409 O.3     1  UNL1       -0.3417
     18 N          12.7534   42.1573    6.3506 N.pl3   1  UNL1       -0.2667
     19 H          12.6238   42.4393    5.4163 H       1  UNL1        0.1565
     20 C           9.2705   38.7557    6.4881 C.3     1  UNL1        0.0522
     21 C           9.9123   39.9568    7.0827 C.ar    1  UNL1        0.0634
     22 C           9.3967   40.5163    8.2502 C.ar    1  UNL1        0.0296
     23 C          10.0263   41.6422    8.7767 C.ar    1  UNL1        0.0634
     24 C          11.6061   41.6083    7.0129 C.ar    1  UNL1        0.2211
     25 C           9.5092   42.2704   10.0201 C.3     1  UNL1        0.0522
     26 N          11.1135   42.1659    8.1531 N.ar    1  UNL1       -0.2179
     27 N          11.0017   40.5096    6.4880 N.ar    1  UNL1       -0.2179
@<TRIPOS>BOND
     1    20    21    1
     2    21    27   ar
     3    22    23   ar
     4    24    26   ar
     5    24    18    1
     6     2     5   ar
     7     3     6   ar
     8     4     1   ar
     9     7     2    1
    10     7     8    1
    11     8     9    1
    12     9    10    1
    13    10    13    1
    14    11    13    1
    15    11     7    1
    16    15    12    1
    17    15    17    1
    18    16    17    1
    19    25    23    1
    20    18     1    1
    21    13    12   am
    22    21    22   ar
    23    23    26   ar
    24    24    27   ar
    25     1     5   ar
    26     2     3   ar
    27     4     6   ar
    28    12    14    2
    29    18    19    1
@<TRIPOS>MOLECULE
MolPort-020-275-231 MCULE-7586230728 PubChem-110252908
 27 29 0 0 0
SMALL
GASTEIGER

@<TRIPOS>ATOM
      1 C          14.0127   40.4421    9.4437 C.ar    1  UNL1        0.1533
      2 C          11.6438   40.6076    9.4637 C.ar    1  UNL1        0.0808
      3 C          11.6130   40.0053   10.7276 C.ar    1  UNL1        0.1137
      4 C          13.9735   39.8408   10.7082 C.ar    1  UNL1        0.1332
      5 N          12.8428   40.8092    8.8558 N.ar    1  UNL1       -0.2316
      6 N          12.7779   39.6363   11.3202 N.ar    1  UNL1       -0.2382
      7 C          10.3878   41.0284    8.7702 C.3     1  UNL1        0.0617
      8 C           9.3615   41.5725    9.7673 C.3     1  UNL1        0.0094
      9 C           8.0943   42.0148    9.0387 C.3     1  UNL1        0.0219
     10 C           7.5074   40.8445    8.2552 C.3     1  UNL1        0.0935
     11 C           9.7970   39.8742    7.9594 C.3     1  UNL1        0.0994
     12 C           8.2956   40.1918    5.9564 C.2     1  UNL1        0.2559
     13 N           8.5284   40.2925    7.3689 N.am    1  UNL1       -0.2771
     14 O           7.1910   40.5524    5.4688 O.2     1  UNL1       -0.2721
     15 C           9.3356   39.6297    5.0453 C.3     1  UNL1        0.2272
     16 C           9.4816   38.5736    3.1148 C.3     1  UNL1        0.1748
     17 O           8.8771   39.6694    3.7290 O.3     1  UNL1       -0.3417
     18 N          15.2456   40.6822    8.7503 N.pl3   1  UNL1       -0.2667
     19 H          15.9068   39.9531    8.7716 H       1  UNL1        0.1565
     20 C          18.5839   44.1183    7.8730 C.3     1  UNL1        0.0522
     21 C          17.2449   43.5339    7.6012 C.ar    1  UNL1        0.0634
     22 C          16.3994   44.1328    6.6693 C.ar    1  UNL1        0.0296
     23 C          15.1520   43.5550    6.4424 C.ar    1  UNL1        0.0634
     24 C          15.6248   41.8626    8.0298 C.ar    1  UNL1        0.2211
     25 C          14.2196   44.1615    5.4571 C.3     1  UNL1        0.0522
     26 N          14.7881   42.4367    7.1222 N.ar    1  UNL1       -0.2179
     27 N          16.8449   42.4157    8.2612 N.ar    1  UNL1       -0.2179
@<TRIPOS>BOND
     1    20    21    1
     2    21    27   ar
     3    22    23   ar
     4    24    26   ar
     5    24    18    1
     6     2     5   ar
     7     3     6   ar
     8     4     1   ar
     9     7     2    1
    10     7     8    1
    11     8     9    1
    12     9    10    1
    13    10    13    1
    14    11    13    1
    15    11     7    1
    16    15    12    1
    17    15    17    1
    18    16    17    1
    19    25    23    1
    20    18     1    1
    21    13    12   am
    22    21    22   ar
    23    23    26   ar
    24    24    27   ar
    25     1     5   ar
    26     2     3   ar
    27     4     6   ar
    28    12    14    2
    29    18    19    1
@<TRIPOS>MOLECULE
MolPort-020-275-231 MCULE-7586230728 PubChem-110252908
 27 29 0 0 0
SMALL
GASTEIGER

@<TRIPOS>ATOM
      1 C          13.8352   40.3347    9.3084 C.ar    1  UNL1        0.1533
      2 C          11.5764   39.9517    8.6829 C.ar    1  UNL1        0.0808
      3 C          11.2567   39.6645   10.0158 C.ar    1  UNL1        0.1137
      4 C          13.5072   40.0467   10.6393 C.ar    1  UNL1        0.1332
      5 N          12.8571   40.2785    8.3653 N.ar    1  UNL1       -0.2316
      6 N          12.2289   39.7189   10.9625 N.ar    1  UNL1       -0.2382
      7 C          10.5413   39.9024    7.6051 C.3     1  UNL1        0.0617
      8 C          11.1408   39.4109    6.2851 C.3     1  UNL1        0.0094
      9 C          10.0654   39.3486    5.2026 C.3     1  UNL1        0.0219
     10 C           9.4289   40.7232    5.0198 C.3     1  UNL1        0.0935
     11 C           9.8746   41.2665    7.4233 C.3     1  UNL1        0.0994
     12 C           7.5595   41.5800    6.4699 C.2     1  UNL1        0.2559
     13 N           8.9351   41.2051    6.3068 N.am    1  UNL1       -0.2771
     14 O           6.7674   41.5256    5.4914 O.2     1  UNL1       -0.2721
     15 C           7.0486   42.0721    7.7832 C.3     1  UNL1        0.2272
     16 C           5.3557   41.3047    8.9699 C.3     1  UNL1        0.1748
     17 O           6.6527   40.9895    8.5679 O.3     1  UNL1       -0.3417
     18 N          15.1677   40.6861    8.9092 N.pl3   1  UNL1       -0.2667
     19 H          15.8811   40.0614    9.1739 H       1  UNL1        0.1565
     20 C          14.1087   44.0769    5.5773 C.3     1  UNL1        0.0522
     21 C          15.0679   43.4923    6.5501 C.ar    1  UNL1        0.0634
     22 C          16.3253   44.0683    6.7208 C.ar    1  UNL1        0.0296
     23 C          17.1964   43.4910    7.6423 C.ar    1  UNL1        0.0634
     24 C          15.5793   41.8431    8.1688 C.ar    1  UNL1        0.2211
     25 C          18.5466   44.0736    7.8554 C.3     1  UNL1        0.0522
     26 N          16.8111   42.3950    8.3463 N.ar    1  UNL1       -0.2179
     27 N          14.7192   42.3960    7.2730 N.ar    1  UNL1       -0.2179
@<TRIPOS>BOND
     1    20    21    1
     2    21    27   ar
     3    22    23   ar
     4    24    26   ar
     5    24    18    1
     6     2     5   ar
     7     3     6   ar
     8     4     1   ar
     9     7     2    1
    10     7     8    1
    11     8     9    1
    12     9    10    1
    13    10    13    1
    14    11    13    1
    15    11     7    1
    16    15    12    1
    17    15    17    1
    18    16    17    1
    19    25    23    1
    20    18     1    1
    21    13    12   am
    22    21    22   ar
    23    23    26   ar
    24    24    27   ar
    25     1     5   ar
    26     2     3   ar
    27     4     6   ar
    28    12    14    2
    29    18    19    1
@<TRIPOS>MOLECULE
MolPort-020-275-231 MCULE-7586230728 PubChem-110252908
 27 29 0 0 0
SMALL
GASTEIGER

@<TRIPOS>ATOM
      1 C          11.3630   41.0809    8.4603 C.ar    1  UNL1        0.1533
      2 C           9.0934   41.6202    8.9048 C.ar    1  UNL1        0.0808
      3 C           9.3013   41.3699   10.2669 C.ar    1  UNL1        0.1137
      4 C          11.5631   40.8331    9.8243 C.ar    1  UNL1        0.1332
      5 N          10.1298   41.4684    8.0383 N.ar    1  UNL1       -0.2316
      6 N          10.5307   40.9826   10.6948 N.ar    1  UNL1       -0.2382
      7 C           7.7573   42.0459    8.3857 C.3     1  UNL1        0.0617
      8 C           7.8997   42.8731    7.1055 C.3     1  UNL1        0.0094
      9 C           6.5252   43.2817    6.5803 C.3     1  UNL1        0.0219
     10 C           5.7737   44.0740    7.6459 C.3     1  UNL1        0.0935
     11 C           6.9787   42.8217    9.4488 C.3     1  UNL1        0.0994
     12 C           4.4615   42.9903    9.4993 C.2     1  UNL1        0.2559
     13 N           5.7198   43.2971    8.8812 N.am    1  UNL1       -0.2771
     14 O           3.3876   43.4162    8.9962 O.2     1  UNL1       -0.2721
     15 C           4.3998   42.1956   10.7613 C.3     1  UNL1        0.2272
     16 C           3.9470   40.1411   11.4225 C.3     1  UNL1        0.1748
     17 O           4.6924   40.8596   10.4889 O.3     1  UNL1       -0.3417
     18 N          12.4158   40.9389    7.4960 N.pl3   1  UNL1       -0.2667
     19 H          12.2895   40.2421    6.8121 H       1  UNL1        0.1565
     20 C          14.8675   44.6562    5.5232 C.3     1  UNL1        0.0522
     21 C          14.8253   43.5014    6.4575 C.ar    1  UNL1        0.0634
     22 C          15.9460   43.1819    7.2217 C.ar    1  UNL1        0.0296
     23 C          15.8670   42.0919    8.0859 C.ar    1  UNL1        0.0634
     24 C          13.6310   41.6959    7.4143 C.ar    1  UNL1        0.2211
     25 C          17.0389   41.7168    8.9189 C.3     1  UNL1        0.0522
     26 N          14.7181   41.3719    8.1670 N.ar    1  UNL1       -0.2179
     27 N          13.6940   42.7568    6.5667 N.ar    1  UNL1       -0.2179
@<TRIPOS>BOND
     1    20    21    1
     2    21    27   ar
     3    22    23   ar
     4    24    26   ar
     5    24    18    1
     6     2     5   ar
     7     3     6   ar
     8     4     1   ar
     9     7     2    1
    10     7     8    1
    11     8     9    1
    12     9    10    1
    13    10    13    1
    14    11    13    1
    15    11     7    1
    16    15    12    1
    17    15    17    1
    18    16    17    1
    19    25    23    1
    20    18     1    1
    21    13    12   am
    22    21    22   ar
    23    23    26   ar
    24    24    27   ar
    25     1     5   ar
    26     2     3   ar
    27     4     6   ar
    28    12    14    2
    29    18    19    1
