@<TRIPOS>MOLECULE
MolPort-035-783-698 CSSS00010743493 LN04744983 PubChem-58810185
 16 16 0 0 0
SMALL
GASTEIGER

@<TRIPOS>ATOM
      1 C          13.9575   42.6136    6.4944 C.ar    1  UNL1        0.1525
      2 C          12.6697   42.2934    6.1017 C.ar    1  UNL1        0.0612
      3 C          12.3826   41.2218    6.9225 C.ar    1  UNL1        0.1554
      4 N          13.4155   40.9315    7.7344 N.ar    1  UNL1       -0.1572
      5 N          14.3853   41.7891    7.4700 N.ar    1  UNL1       -0.2686
      6 H          15.2660   41.8201    7.9090 H       1  UNL1        0.1892
      7 C          10.0138   40.8470    6.0928 C.2     1  UNL1        0.2277
      8 C           8.7806   40.0225    6.1765 C.3     1  UNL1        0.0950
      9 O          10.0499   41.8292    5.3054 O.2     1  UNL1       -0.2747
     10 N          11.1405   40.5113    6.9085 N.am    1  UNL1       -0.2679
     11 H          11.0547   39.7329    7.5052 H       1  UNL1        0.1563
     12 C          14.7654   43.7015    5.9346 C.2     1  UNL1        0.3586
     13 O          14.6963   43.9622    4.7025 O.2     1  UNL1       -0.2432
     14 O          15.6047   44.4407    6.7707 O.3     1  UNL1       -0.4444
     15 C          17.4158   43.8630    8.2309 C.3     1  UNL1        0.0513
     16 C          17.0059   44.2158    6.8163 C.3     1  UNL1        0.2089
@<TRIPOS>BOND
     1    15    16    1
     2    16    14    1
     3    12    14    1
     4    12     1    1
     5     2     3   ar
     6     3    10    1
     7     8     7    1
     8     5     4   ar
     9     5     1   ar
    10    10     7   am
    11    12    13    2
    12     1     2   ar
    13     3     4   ar
    14     7     9    2
    15     5     6    1
    16    10    11    1
@<TRIPOS>MOLECULE
MolPort-035-783-698 CSSS00010743493 LN04744983 PubChem-58810185
 16 16 0 0 0
SMALL
GASTEIGER

@<TRIPOS>ATOM
      1 C           9.0395   42.3326   10.9438 C.ar    1  UNL1        0.1525
      2 C           9.9201   41.5633   10.2036 C.ar    1  UNL1        0.0612
      3 C          10.8542   42.5009    9.8128 C.ar    1  UNL1        0.1554
      4 N          10.5516   43.7247   10.2829 N.ar    1  UNL1       -0.1572
      5 N           9.4335   43.6203   10.9794 N.ar    1  UNL1       -0.2686
      6 H           8.9698   44.3547   11.4429 H       1  UNL1        0.1892
      7 C          11.9695   41.9566    7.5991 C.2     1  UNL1        0.2277
      8 C          13.2369   41.6595    6.8829 C.3     1  UNL1        0.0950
      9 O          10.8870   41.9862    6.9562 O.2     1  UNL1       -0.2747
     10 N          11.9998   42.2043    9.0082 N.am    1  UNL1       -0.2679
     11 H          12.8748   42.1678    9.4580 H       1  UNL1        0.1563
     12 C           7.8325   41.8313   11.6080 C.2     1  UNL1        0.3586
     13 O           7.8074   41.7264   12.8648 O.2     1  UNL1       -0.2432
     14 O           6.7198   41.4743   10.8435 O.3     1  UNL1       -0.4444
     15 C           4.4864   40.6150   10.7049 C.3     1  UNL1        0.0513
     16 C           5.3938   41.6630   11.3147 C.3     1  UNL1        0.2089
@<TRIPOS>BOND
     1    15    16    1
     2    16    14    1
     3    12    14    1
     4    12     1    1
     5     2     3   ar
     6     3    10    1
     7     8     7    1
     8     5     4   ar
     9     5     1   ar
    10    10     7   am
    11    12    13    2
    12     1     2   ar
    13     3     4   ar
    14     7     9    2
    15     5     6    1
    16    10    11    1
@<TRIPOS>MOLECULE
MolPort-035-783-698 CSSS00010743493 LN04744983 PubChem-58810185
 16 16 0 0 0
SMALL
GASTEIGER

@<TRIPOS>ATOM
      1 C          11.5085   41.0896    7.9553 C.ar    1  UNL1        0.1525
      2 C          12.7670   41.6010    8.2193 C.ar    1  UNL1        0.0612
      3 C          13.2200   41.9046    6.9516 C.ar    1  UNL1        0.1554
      4 N          12.3049   41.5979    6.0141 N.ar    1  UNL1       -0.1572
      5 N          11.2510   41.0958    6.6331 N.ar    1  UNL1       -0.2686
      6 H          10.4229   40.7814    6.2034 H       1  UNL1        0.1892
      7 C          14.7184   43.7258    6.0145 C.2     1  UNL1        0.2277
      8 C          16.1075   44.2018    5.7879 C.3     1  UNL1        0.0950
      9 O          13.7506   44.4305    5.6234 O.2     1  UNL1       -0.2747
     10 N          14.5030   42.4740    6.6735 N.am    1  UNL1       -0.2679
     11 H          15.2974   41.9663    6.9570 H       1  UNL1        0.1563
     12 C          10.5664   40.6003    8.9665 C.2     1  UNL1        0.3586
     13 O           9.5229   41.2613    9.2215 O.2     1  UNL1       -0.2432
     14 O          10.8321   39.4056    9.6389 O.3     1  UNL1       -0.4444
     15 C          11.9218   37.2710    9.5920 C.3     1  UNL1        0.0513
     16 C          10.8653   38.1565    8.9647 C.3     1  UNL1        0.2089
@<TRIPOS>BOND
     1    15    16    1
     2    16    14    1
     3    12    14    1
     4    12     1    1
     5     2     3   ar
     6     3    10    1
     7     8     7    1
     8     5     4   ar
     9     5     1   ar
    10    10     7   am
    11    12    13    2
    12     1     2   ar
    13     3     4   ar
    14     7     9    2
    15     5     6    1
    16    10    11    1
@<TRIPOS>MOLECULE
MolPort-035-783-698 CSSS00010743493 LN04744983 PubChem-58810185
 16 16 0 0 0
SMALL
GASTEIGER

@<TRIPOS>ATOM
      1 C          11.2511   41.5975    6.2329 C.ar    1  UNL1        0.1525
      2 C          12.3891   42.2081    5.7356 C.ar    1  UNL1        0.0612
      3 C          13.2052   42.2327    6.8482 C.ar    1  UNL1        0.1554
      4 N          12.6002   41.6820    7.9163 N.ar    1  UNL1       -0.1572
      5 N          11.3964   41.2911    7.5365 N.ar    1  UNL1       -0.2686
      6 H          10.7238   40.8528    8.1064 H       1  UNL1        0.1892
      7 C          14.9064   44.0256    6.2718 C.2     1  UNL1        0.2277
      8 C          16.3204   44.4739    6.3561 C.3     1  UNL1        0.0950
      9 O          14.0607   44.7505    5.6842 O.2     1  UNL1       -0.2747
     10 N          14.5287   42.7768    6.8598 N.am    1  UNL1       -0.2679
     11 H          15.2325   42.2525    7.3060 H       1  UNL1        0.1563
     12 C          10.0383   41.3138    5.4596 C.2     1  UNL1        0.3586
     13 O           8.9604   41.9021    5.7477 O.2     1  UNL1       -0.2432
     14 O          10.0866   40.3945    4.4096 O.3     1  UNL1       -0.4444
     15 C           9.4455   38.5038    3.0828 C.3     1  UNL1        0.0513
     16 C           9.3171   39.2013    4.4209 C.3     1  UNL1        0.2089
@<TRIPOS>BOND
     1    15    16    1
     2    16    14    1
     3    12    14    1
     4    12     1    1
     5     2     3   ar
     6     3    10    1
     7     8     7    1
     8     5     4   ar
     9     5     1   ar
    10    10     7   am
    11    12    13    2
    12     1     2   ar
    13     3     4   ar
    14     7     9    2
    15     5     6    1
    16    10    11    1
@<TRIPOS>MOLECULE
MolPort-035-783-698 CSSS00010743493 LN04744983 PubChem-58810185
 16 16 0 0 0
SMALL
GASTEIGER

@<TRIPOS>ATOM
      1 C           8.1730   42.1774   10.5524 C.ar    1  UNL1        0.1525
      2 C           9.0625   41.5003    9.7365 C.ar    1  UNL1        0.0612
      3 C          10.2190   42.2329    9.9107 C.ar    1  UNL1        0.1554
      4 N          10.0298   43.2593   10.7597 N.ar    1  UNL1       -0.1572
      5 N           8.7692   43.2246   11.1544 N.ar    1  UNL1       -0.2686
      6 H           8.3408   43.8537   11.7789 H       1  UNL1        0.1892
      7 C          12.4218   40.9845    9.7393 C.2     1  UNL1        0.2277
      8 C          13.6759   40.7710    8.9716 C.3     1  UNL1        0.0950
      9 O          12.2218   40.3267   10.7944 O.2     1  UNL1       -0.2747
     10 N          11.4617   41.9346    9.2668 N.am    1  UNL1       -0.2679
     11 H          11.6719   42.4195    8.4362 H       1  UNL1        0.1563
     12 C           6.7650   41.8186   10.7479 C.2     1  UNL1        0.3586
     13 O           6.4150   41.2041   11.7923 O.2     1  UNL1       -0.2432
     14 O           5.8226   42.1607    9.7760 O.3     1  UNL1       -0.4444
     15 C           3.5729   41.4114    9.4245 C.3     1  UNL1        0.0513
     16 C           5.0371   41.1803    9.1144 C.3     1  UNL1        0.2089
@<TRIPOS>BOND
     1    15    16    1
     2    16    14    1
     3    12    14    1
     4    12     1    1
     5     2     3   ar
     6     3    10    1
     7     8     7    1
     8     5     4   ar
     9     5     1   ar
    10    10     7   am
    11    12    13    2
    12     1     2   ar
    13     3     4   ar
    14     7     9    2
    15     5     6    1
    16    10    11    1
@<TRIPOS>MOLECULE
MolPort-035-783-698 CSSS00010743493 LN04744983 PubChem-58810185
 16 16 0 0 0
SMALL
GASTEIGER

@<TRIPOS>ATOM
      1 C           8.9211   41.9885    7.2438 C.ar    1  UNL1        0.1525
      2 C           7.7423   42.3071    7.8951 C.ar    1  UNL1        0.0612
      3 C           6.9840   42.8291    6.8669 C.ar    1  UNL1        0.1554
      4 N           7.6584   42.8203    5.7027 N.ar    1  UNL1       -0.1572
      5 N           8.8516   42.3025    5.9357 N.ar    1  UNL1       -0.2686
      6 H           9.5646   42.1696    5.2700 H       1  UNL1        0.1892
      7 C           5.2640   44.3887    7.8915 C.2     1  UNL1        0.2277
      8 C           3.8371   44.7971    7.9592 C.3     1  UNL1        0.0950
      9 O           6.1149   44.9908    8.5983 O.2     1  UNL1       -0.2747
     10 N           5.6481   43.3174    7.0239 N.am    1  UNL1       -0.2679
     11 H           4.9399   42.8837    6.4953 H       1  UNL1        0.1563
     12 C          10.1001   41.3890    7.8762 C.2     1  UNL1        0.3586
     13 O           9.9756   40.3388    8.5637 O.2     1  UNL1       -0.2432
     14 O          11.3518   41.9857    7.7118 O.3     1  UNL1       -0.4444
     15 C          13.2207   42.4556    6.2862 C.3     1  UNL1        0.0513
     16 C          12.3757   41.3802    6.9367 C.3     1  UNL1        0.2089
@<TRIPOS>BOND
     1    15    16    1
     2    16    14    1
     3    12    14    1
     4    12     1    1
     5     2     3   ar
     6     3    10    1
     7     8     7    1
     8     5     4   ar
     9     5     1   ar
    10    10     7   am
    11    12    13    2
    12     1     2   ar
    13     3     4   ar
    14     7     9    2
    15     5     6    1
    16    10    11    1
@<TRIPOS>MOLECULE
MolPort-035-783-698 CSSS00010743493 LN04744983 PubChem-58810185
 16 16 0 0 0
SMALL
GASTEIGER

@<TRIPOS>ATOM
      1 C          11.5875   41.0383    8.0931 C.ar    1  UNL1        0.1525
      2 C          12.9199   41.3823    8.2400 C.ar    1  UNL1        0.0612
      3 C          13.2056   41.9365    7.0088 C.ar    1  UNL1        0.1554
      4 N          12.1308   41.9217    6.1996 N.ar    1  UNL1       -0.1572
      5 N          11.1345   41.3681    6.8682 N.ar    1  UNL1       -0.2686
      6 H          10.2213   41.2223    6.5303 H       1  UNL1        0.1892
      7 C          14.7006   43.7045    5.9698 C.2     1  UNL1        0.2277
      8 C          16.0870   44.1308    5.6481 C.3     1  UNL1        0.0950
      9 O          13.7341   44.4441    5.6455 O.2     1  UNL1       -0.2747
     10 N          14.4861   42.4601    6.6430 N.am    1  UNL1       -0.2679
     11 H          15.2794   41.9238    6.8717 H       1  UNL1        0.1563
     12 C          10.7620   40.3985    9.1220 C.2     1  UNL1        0.3586
     13 O          11.0546   39.2410    9.5289 O.2     1  UNL1       -0.2432
     14 O           9.6583   41.0765    9.6438 O.3     1  UNL1       -0.4444
     15 C           9.6975   41.2590   12.0336 C.3     1  UNL1        0.0513
     16 C           9.7826   41.9996   10.7153 C.3     1  UNL1        0.2089
@<TRIPOS>BOND
     1    15    16    1
     2    16    14    1
     3    12    14    1
     4    12     1    1
     5     2     3   ar
     6     3    10    1
     7     8     7    1
     8     5     4   ar
     9     5     1   ar
    10    10     7   am
    11    12    13    2
    12     1     2   ar
    13     3     4   ar
    14     7     9    2
    15     5     6    1
    16    10    11    1
@<TRIPOS>MOLECULE
MolPort-035-783-698 CSSS00010743493 LN04744983 PubChem-58810185
 16 16 0 0 0
SMALL
GASTEIGER

@<TRIPOS>ATOM
      1 C           6.7094   40.7533    7.2390 C.ar    1  UNL1        0.1525
      2 C           8.0588   40.5198    7.0393 C.ar    1  UNL1        0.0612
      3 C           8.0348   39.5386    6.0691 C.ar    1  UNL1        0.1554
      4 N           6.7749   39.2175    5.7230 N.ar    1  UNL1       -0.1572
      5 N           5.9590   39.9660    6.4442 N.ar    1  UNL1       -0.2686
      6 H           4.9753   39.9510    6.4072 H       1  UNL1        0.1892
      7 C           9.5855   39.0230    4.1275 C.2     1  UNL1        0.2277
      8 C          10.8311   38.3531    3.6724 C.3     1  UNL1        0.0950
      9 O           8.8817   39.6538    3.2950 O.2     1  UNL1       -0.2747
     10 N           9.2059   38.9404    5.5047 N.am    1  UNL1       -0.2679
     11 H           9.7948   38.4339    6.1096 H       1  UNL1        0.1563
     12 C           6.1512   41.7236    8.1858 C.2     1  UNL1        0.3586
     13 O           6.5561   42.9181    8.1695 O.2     1  UNL1       -0.2432
     14 O           5.1749   41.3173    9.0978 O.3     1  UNL1       -0.4444
     15 C           2.8067   41.3444    9.4678 C.3     1  UNL1        0.0513
     16 C           4.0856   42.1554    9.4541 C.3     1  UNL1        0.2089
@<TRIPOS>BOND
     1    15    16    1
     2    16    14    1
     3    12    14    1
     4    12     1    1
     5     2     3   ar
     6     3    10    1
     7     8     7    1
     8     5     4   ar
     9     5     1   ar
    10    10     7   am
    11    12    13    2
    12     1     2   ar
    13     3     4   ar
    14     7     9    2
    15     5     6    1
    16    10    11    1
@<TRIPOS>MOLECULE
MolPort-035-783-698 CSSS00010743493 LN04744983 PubChem-58810185
 16 16 0 0 0
SMALL
GASTEIGER

@<TRIPOS>ATOM
      1 C           9.3784   41.3319    6.2072 C.ar    1  UNL1        0.1525
      2 C          10.3988   41.6052    7.1012 C.ar    1  UNL1        0.0612
      3 C          11.5191   41.3345    6.3421 C.ar    1  UNL1        0.1554
      4 N          11.1891   40.9338    5.1009 N.ar    1  UNL1       -0.1572
      5 N           9.8703   40.9323    5.0185 N.ar    1  UNL1       -0.2686
      6 H           9.3402   40.6828    4.2273 H       1  UNL1        0.1892
      7 C          13.6854   42.6218    6.6428 C.2     1  UNL1        0.2277
      8 C          15.0664   42.6251    7.1909 C.3     1  UNL1        0.0950
      9 O          13.2595   43.6367    6.0307 O.2     1  UNL1       -0.2747
     10 N          12.8618   41.4650    6.8196 N.am    1  UNL1       -0.2679
     11 H          13.2480   40.7014    7.3063 H       1  UNL1        0.1563
     12 C           7.9464   41.4542    6.4968 C.2     1  UNL1        0.3586
     13 O           7.2200   42.1814    5.7657 O.2     1  UNL1       -0.2432
     14 O           7.3982   40.7639    7.5797 O.3     1  UNL1       -0.4444
     15 C           7.1933   42.2171    9.4750 C.3     1  UNL1        0.0513
     16 C           6.4600   41.3681    8.4576 C.3     1  UNL1        0.2089
@<TRIPOS>BOND
     1    15    16    1
     2    16    14    1
     3    12    14    1
     4    12     1    1
     5     2     3   ar
     6     3    10    1
     7     8     7    1
     8     5     4   ar
     9     5     1   ar
    10    10     7   am
    11    12    13    2
    12     1     2   ar
    13     3     4   ar
    14     7     9    2
    15     5     6    1
    16    10    11    1
@<TRIPOS>MOLECULE
MolPort-035-783-698 CSSS00010743493 LN04744983 PubChem-58810185
 16 16 0 0 0
SMALL
GASTEIGER

@<TRIPOS>ATOM
      1 C           6.7209   40.7425    7.3588 C.ar    1  UNL1        0.1525
      2 C           8.0566   40.4421    7.1569 C.ar    1  UNL1        0.0612
      3 C           7.9864   39.5159    6.1362 C.ar    1  UNL1        0.1554
      4 N           6.7138   39.2867    5.7645 N.ar    1  UNL1       -0.1572
      5 N           5.9348   40.0425    6.5181 N.ar    1  UNL1       -0.2686
      6 H           4.9523   40.0864    6.4731 H       1  UNL1        0.1892
      7 C           9.5258   39.0146    4.1819 C.2     1  UNL1        0.2277
      8 C          10.7354   38.2982    3.7012 C.3     1  UNL1        0.0950
      9 O           8.8688   39.7287    3.3791 O.2     1  UNL1       -0.2747
     10 N           9.1270   38.8811    5.5497 N.am    1  UNL1       -0.2679
     11 H           9.6789   38.3096    6.1310 H       1  UNL1        0.1563
     12 C           6.2095   41.6928    8.3512 C.2     1  UNL1        0.3586
     13 O           6.2059   41.3803    9.5732 O.2     1  UNL1       -0.2432
     14 O           5.7309   42.9368    7.9352 O.3     1  UNL1       -0.4444
     15 C           4.1898   44.7699    7.8297 C.3     1  UNL1        0.0513
     16 C           4.7602   43.6554    8.6818 C.3     1  UNL1        0.2089
@<TRIPOS>BOND
     1    15    16    1
     2    16    14    1
     3    12    14    1
     4    12     1    1
     5     2     3   ar
     6     3    10    1
     7     8     7    1
     8     5     4   ar
     9     5     1   ar
    10    10     7   am
    11    12    13    2
    12     1     2   ar
    13     3     4   ar
    14     7     9    2
    15     5     6    1
    16    10    11    1
