@<TRIPOS>MOLECULE
MolPort-010-852-379 41076406 ChemDiv-G952-3399 MCULE-5574678977 PubChem-52095938 ZINC000041076406 ZINC41076406
 27 30 0 0 0
SMALL
GASTEIGER

@<TRIPOS>ATOM
      1 C          11.1346   42.1701    9.7472 C.2     1  UNL1        0.2483
      2 N          11.9512   41.5367    8.7562 N.am    1  UNL1       -0.2613
      3 O          11.0865   43.4238    9.8522 O.2     1  UNL1       -0.2728
      4 H          11.9580   40.5523    8.7500 H       1  UNL1        0.1568
      5 C          15.6509   43.8368    6.6545 C.ar    1  UNL1        0.1643
      6 C          13.8058   43.1859    5.8910 C.ar    1  UNL1        0.2195
      7 C          12.7591   42.1939    7.7728 C.ar    1  UNL1        0.1880
      8 N          15.6164   44.1461    5.3298 N.ar    1  UNL1       -0.1310
      9 N          14.4403   43.7325    4.8402 N.ar    1  UNL1       -0.1202
     10 N          13.9898   42.6950    8.0776 N.ar    1  UNL1       -0.1400
     11 N          14.5102   43.2343    6.9877 N.ar    1  UNL1       -0.1881
     12 S          12.3314   42.4238    6.1093 S.2     1  UNL1       -0.0111
     13 C          16.7951   44.0945    7.5790 C.3     1  UNL1        0.0677
     14 C          17.4040   41.9889    8.7724 C.3     1  UNL1        0.0005
     15 C          17.7462   42.9094    7.6163 C.3     1  UNL1        0.0080
     16 C          10.2962   41.3292   10.6469 C.3     1  UNL1        0.1866
     17 C           8.1786   41.3739    9.1867 C.2     1  UNL1        0.2555
     18 C           6.7417   41.3736    9.4336 C.ar    1  UNL1        0.0584
     19 C           5.6704   41.2037    8.5592 C.ar    1  UNL1        0.0047
     20 C           4.3734   41.2353    9.1012 C.ar    1  UNL1        0.0001
     21 C           4.1775   41.4290   10.4855 C.ar    1  UNL1        0.0001
     22 C           5.2755   41.5934   11.3481 C.ar    1  UNL1        0.0047
     23 C           6.5501   41.5623   10.7867 C.ar    1  UNL1        0.0584
     24 C           7.8642   41.6839   11.4064 C.2     1  UNL1        0.2555
     25 N           8.8840   41.5939   10.4095 N.am    1  UNL1       -0.2136
     26 O           8.7338   41.1840    8.0723 O.2     1  UNL1       -0.2695
     27 O           8.0867   41.8218   12.6383 O.2     1  UNL1       -0.2695
@<TRIPOS>BOND
     1    14    15    1
     2    15    13    1
     3    13     5    1
     4     6    12   ar
     5     7    12   ar
     6     7     2    1
     7    16     1    1
     8    16    25    1
     9    17    18    1
    10    19    20   ar
    11    21    22   ar
    12    23    24    1
    13    23    18   ar
    14    24    25   am
    15     8     9   ar
    16     2     1   am
    17    25    17   am
    18    11    10   ar
    19    11     5   ar
    20    11     6   ar
    21     5     8   ar
    22     6     9   ar
    23     7    10   ar
    24     1     3    2
    25    17    26    2
    26    18    19   ar
    27    20    21   ar
    28    22    23   ar
    29    24    27    2
    30     2     4    1
@<TRIPOS>MOLECULE
MolPort-010-852-379 41076406 ChemDiv-G952-3399 MCULE-5574678977 PubChem-52095938 ZINC000041076406 ZINC41076406
 27 30 0 0 0
SMALL
GASTEIGER

@<TRIPOS>ATOM
      1 C          11.1641   41.4203    7.2741 C.2     1  UNL1        0.2483
      2 N          10.6286   42.4158    8.1530 N.am    1  UNL1       -0.2613
      3 O          10.8220   40.2122    7.3674 O.2     1  UNL1       -0.2728
      4 H          10.9614   43.3351    8.0372 H       1  UNL1        0.1568
      5 C           6.4303   41.5262   10.3840 C.ar    1  UNL1        0.1643
      6 C           8.3561   41.8869   11.1403 C.ar    1  UNL1        0.2195
      7 C           9.6566   42.2062    9.1840 C.ar    1  UNL1        0.1880
      8 N           6.3665   41.4439   11.7408 N.ar    1  UNL1       -0.1310
      9 N           7.5936   41.6741   12.2261 N.ar    1  UNL1       -0.1202
     10 N           8.3468   41.9648    8.8932 N.ar    1  UNL1       -0.1400
     11 N           7.6836   41.8019   10.0259 N.ar    1  UNL1       -0.1881
     12 S           9.9806   42.2014   10.8864 S.2     1  UNL1       -0.0111
     13 C           5.2908   41.3059    9.4442 C.3     1  UNL1        0.0677
     14 C           2.7980   41.1903    9.4790 C.3     1  UNL1        0.0005
     15 C           4.0751   40.7612   10.1762 C.3     1  UNL1        0.0080
     16 C          12.1163   41.8291    6.2037 C.3     1  UNL1        0.1866
     17 C          14.2462   41.6336    7.6333 C.2     1  UNL1        0.2555
     18 C          15.5232   42.3335    7.7027 C.ar    1  UNL1        0.0584
     19 C          16.6936   42.0211    8.3910 C.ar    1  UNL1        0.0047
     20 C          17.7878   42.8924    8.2485 C.ar    1  UNL1        0.0001
     21 C          17.6922   44.0383    7.4300 C.ar    1  UNL1        0.0001
     22 C          16.5012   44.3295    6.7417 C.ar    1  UNL1        0.0047
     23 C          15.4301   43.4533    6.9022 C.ar    1  UNL1        0.0584
     24 C          14.0932   43.4708    6.3206 C.2     1  UNL1        0.2555
     25 N          13.3405   42.3522    6.7939 N.am    1  UNL1       -0.2136
     26 O          13.9729   40.5433    8.2013 O.2     1  UNL1       -0.2695
     27 O          13.6586   44.3226    5.5011 O.2     1  UNL1       -0.2695
@<TRIPOS>BOND
     1    14    15    1
     2    15    13    1
     3    13     5    1
     4     6    12   ar
     5     7    12   ar
     6     7     2    1
     7    16     1    1
     8    16    25    1
     9    17    18    1
    10    19    20   ar
    11    21    22   ar
    12    23    24    1
    13    23    18   ar
    14    24    25   am
    15     8     9   ar
    16     2     1   am
    17    25    17   am
    18    11    10   ar
    19    11     5   ar
    20    11     6   ar
    21     5     8   ar
    22     6     9   ar
    23     7    10   ar
    24     1     3    2
    25    17    26    2
    26    18    19   ar
    27    20    21   ar
    28    22    23   ar
    29    24    27    2
    30     2     4    1
@<TRIPOS>MOLECULE
MolPort-010-852-379 41076406 ChemDiv-G952-3399 MCULE-5574678977 PubChem-52095938 ZINC000041076406 ZINC41076406
 27 30 0 0 0
SMALL
GASTEIGER

@<TRIPOS>ATOM
      1 C          11.5060   42.3164    9.4912 C.2     1  UNL1        0.2483
      2 N          12.3929   41.7159    8.5410 N.am    1  UNL1       -0.2613
      3 O          11.4099   43.5672    9.5978 O.2     1  UNL1       -0.2728
      4 H          12.4336   40.7323    8.5320 H       1  UNL1        0.1568
      5 C          16.2010   43.9569    6.5733 C.ar    1  UNL1        0.1643
      6 C          14.3078   43.4905    5.7928 C.ar    1  UNL1        0.2195
      7 C          13.2270   42.4051    7.6023 C.ar    1  UNL1        0.1880
      8 N          16.1675   44.3820    5.2810 N.ar    1  UNL1       -0.1310
      9 N          14.9607   44.0863    4.7807 N.ar    1  UNL1       -0.1202
     10 N          14.4911   42.8005    7.9249 N.ar    1  UNL1       -0.1400
     11 N          15.0293   43.3995    6.8756 N.ar    1  UNL1       -0.1881
     12 S          12.7913   42.8051    5.9734 S.2     1  UNL1       -0.0111
     13 C          17.3721   44.0618    7.4940 C.3     1  UNL1        0.0677
     14 C          17.5710   41.9155    8.7520 C.3     1  UNL1        0.0005
     15 C          18.1090   42.7362    7.5952 C.3     1  UNL1        0.0080
     16 C          10.6521   41.4430   10.3443 C.3     1  UNL1        0.1866
     17 C           8.2776   41.4905    9.3552 C.2     1  UNL1        0.2555
     18 C           7.6071   40.8628    8.2230 C.ar    1  UNL1        0.0584
     19 C           6.3573   41.1080    7.6582 C.ar    1  UNL1        0.0047
     20 C           5.9835   40.3411    6.5406 C.ar    1  UNL1        0.0001
     21 C           6.8552   39.3627    6.0163 C.ar    1  UNL1        0.0001
     22 C           8.1137   39.1372    6.6014 C.ar    1  UNL1        0.0047
     23 C           8.4593   39.9069    7.7100 C.ar    1  UNL1        0.0584
     24 C           9.6755   39.9220    8.5140 C.2     1  UNL1        0.2555
     25 N           9.5578   40.8896    9.5588 N.am    1  UNL1       -0.2136
     26 O           7.8222   42.4399   10.0461 O.2     1  UNL1       -0.2695
     27 O          10.6975   39.2133    8.3154 O.2     1  UNL1       -0.2695
@<TRIPOS>BOND
     1    14    15    1
     2    15    13    1
     3    13     5    1
     4     6    12   ar
     5     7    12   ar
     6     7     2    1
     7    16     1    1
     8    16    25    1
     9    17    18    1
    10    19    20   ar
    11    21    22   ar
    12    23    24    1
    13    23    18   ar
    14    24    25   am
    15     8     9   ar
    16     2     1   am
    17    25    17   am
    18    11    10   ar
    19    11     5   ar
    20    11     6   ar
    21     5     8   ar
    22     6     9   ar
    23     7    10   ar
    24     1     3    2
    25    17    26    2
    26    18    19   ar
    27    20    21   ar
    28    22    23   ar
    29    24    27    2
    30     2     4    1
@<TRIPOS>MOLECULE
MolPort-010-852-379 41076406 ChemDiv-G952-3399 MCULE-5574678977 PubChem-52095938 ZINC000041076406 ZINC41076406
 27 30 0 0 0
SMALL
GASTEIGER

@<TRIPOS>ATOM
      1 C          11.0554   41.9946    7.5173 C.2     1  UNL1        0.2483
      2 N           9.7381   41.4966    7.2587 N.am    1  UNL1       -0.2613
      3 O          11.3651   42.4755    8.6389 O.2     1  UNL1       -0.2728
      4 H           9.5619   41.1587    6.3510 H       1  UNL1        0.1568
      5 C           7.2129   41.7359   11.3771 C.ar    1  UNL1        0.1643
      6 C           6.6270   41.2777    9.4130 C.ar    1  UNL1        0.2195
      7 C           8.6515   41.4414    8.1903 C.ar    1  UNL1        0.1880
      8 N           5.8705   41.5133   11.3847 N.ar    1  UNL1       -0.1310
      9 N           5.4939   41.2202   10.1331 N.ar    1  UNL1       -0.1202
     10 N           8.8331   41.6997    9.5165 N.ar    1  UNL1       -0.1400
     11 N           7.6690   41.5863   10.1343 N.ar    1  UNL1       -0.1881
     12 S           7.0038   41.0790    7.7941 S.2     1  UNL1       -0.0111
     13 C           8.0377   42.1229   12.5604 C.3     1  UNL1        0.0677
     14 C           9.2291   41.0488   14.4723 C.3     1  UNL1        0.0005
     15 C           8.9574   40.9882   12.9811 C.3     1  UNL1        0.0080
     16 C          12.0904   41.9070    6.4493 C.3     1  UNL1        0.1866
     17 C          14.3175   41.7003    7.7205 C.2     1  UNL1        0.2555
     18 C          15.6057   42.3821    7.6846 C.ar    1  UNL1        0.0584
     19 C          16.8194   42.0622    8.2892 C.ar    1  UNL1        0.0047
     20 C          17.9119   42.9150    8.0530 C.ar    1  UNL1        0.0001
     21 C          17.7717   44.0506    7.2265 C.ar    1  UNL1        0.0001
     22 C          16.5371   44.3496    6.6237 C.ar    1  UNL1        0.0047
     23 C          15.4688   43.4916    6.8762 C.ar    1  UNL1        0.0584
     24 C          14.0929   43.5207    6.3948 C.2     1  UNL1        0.2555
     25 N          13.3621   42.4202    6.9394 N.am    1  UNL1       -0.2136
     26 O          14.0722   40.6222    8.3236 O.2     1  UNL1       -0.2695
     27 O          13.6105   44.3672    5.5967 O.2     1  UNL1       -0.2695
@<TRIPOS>BOND
     1    14    15    1
     2    15    13    1
     3    13     5    1
     4     6    12   ar
     5     7    12   ar
     6     7     2    1
     7    16     1    1
     8    16    25    1
     9    17    18    1
    10    19    20   ar
    11    21    22   ar
    12    23    24    1
    13    23    18   ar
    14    24    25   am
    15     8     9   ar
    16     2     1   am
    17    25    17   am
    18    11    10   ar
    19    11     5   ar
    20    11     6   ar
    21     5     8   ar
    22     6     9   ar
    23     7    10   ar
    24     1     3    2
    25    17    26    2
    26    18    19   ar
    27    20    21   ar
    28    22    23   ar
    29    24    27    2
    30     2     4    1
@<TRIPOS>MOLECULE
MolPort-010-852-379 41076406 ChemDiv-G952-3399 MCULE-5574678977 PubChem-52095938 ZINC000041076406 ZINC41076406
 27 30 0 0 0
SMALL
GASTEIGER

@<TRIPOS>ATOM
      1 C          11.7393   41.2348    7.9322 C.2     1  UNL1        0.2483
      2 N          12.5742   41.4145    6.7830 N.am    1  UNL1       -0.2613
      3 O          11.9103   41.9140    8.9784 O.2     1  UNL1       -0.2728
      4 H          12.3973   40.8304    6.0104 H       1  UNL1        0.1568
      5 C          16.7330   43.7725    7.5172 C.ar    1  UNL1        0.1643
      6 C          15.2080   44.0538    6.1008 C.ar    1  UNL1        0.2195
      7 C          13.6413   42.3601    6.6463 C.ar    1  UNL1        0.1880
      8 N          17.1018   44.8024    6.7079 N.ar    1  UNL1       -0.1310
      9 N          16.1306   44.9846    5.8036 N.ar    1  UNL1       -0.1202
     10 N          14.7204   42.3456    7.4792 N.ar    1  UNL1       -0.1400
     11 N          15.5462   43.3148    7.1210 N.ar    1  UNL1       -0.1881
     12 S          13.7384   43.6004    5.4398 S.2     1  UNL1       -0.0111
     13 C          17.5420   43.2177    8.6432 C.3     1  UNL1        0.0677
     14 C          17.2466   40.8864    9.4839 C.3     1  UNL1        0.0005
     15 C          17.8742   41.7531    8.4087 C.3     1  UNL1        0.0080
     16 C          10.6220   40.2509    7.8747 C.3     1  UNL1        0.1866
     17 C           8.6250   41.4913    8.9198 C.2     1  UNL1        0.2555
     18 C           7.6198   42.4348    8.4456 C.ar    1  UNL1        0.0584
     19 C           6.6907   43.2003    9.1470 C.ar    1  UNL1        0.0047
     20 C           5.8492   44.0478    8.4052 C.ar    1  UNL1        0.0001
     21 C           5.9551   44.1147    6.9993 C.ar    1  UNL1        0.0001
     22 C           6.9043   43.3354    6.3147 C.ar    1  UNL1        0.0047
     23 C           7.7236   42.5007    7.0715 C.ar    1  UNL1        0.0584
     24 C           8.7951   41.5991    6.6656 C.2     1  UNL1        0.2555
     25 N           9.3439   40.9460    7.8119 N.am    1  UNL1       -0.2136
     26 O           8.8569   41.2068   10.1245 O.2     1  UNL1       -0.2695
     27 O           9.2063   41.4286    5.4875 O.2     1  UNL1       -0.2695
@<TRIPOS>BOND
     1    14    15    1
     2    15    13    1
     3    13     5    1
     4     6    12   ar
     5     7    12   ar
     6     7     2    1
     7    16     1    1
     8    16    25    1
     9    17    18    1
    10    19    20   ar
    11    21    22   ar
    12    23    24    1
    13    23    18   ar
    14    24    25   am
    15     8     9   ar
    16     2     1   am
    17    25    17   am
    18    11    10   ar
    19    11     5   ar
    20    11     6   ar
    21     5     8   ar
    22     6     9   ar
    23     7    10   ar
    24     1     3    2
    25    17    26    2
    26    18    19   ar
    27    20    21   ar
    28    22    23   ar
    29    24    27    2
    30     2     4    1
@<TRIPOS>MOLECULE
MolPort-010-852-379 41076406 ChemDiv-G952-3399 MCULE-5574678977 PubChem-52095938 ZINC000041076406 ZINC41076406
 27 30 0 0 0
SMALL
GASTEIGER

@<TRIPOS>ATOM
      1 C          11.0052   42.1110    7.4430 C.2     1  UNL1        0.2483
      2 N           9.7394   41.4536    7.5677 N.am    1  UNL1       -0.2613
      3 O          11.4610   42.8347    8.3669 O.2     1  UNL1       -0.2728
      4 H           9.4361   40.9246    6.7948 H       1  UNL1        0.1568
      5 C           5.7339   41.5411   10.2778 C.ar    1  UNL1        0.1643
      6 C           7.7671   41.5209   10.8041 C.ar    1  UNL1        0.2195
      7 C           8.8707   41.4895    8.7061 C.ar    1  UNL1        0.1880
      8 N           5.8118   41.5244   11.6362 N.ar    1  UNL1       -0.1310
      9 N           7.1077   41.5121   11.9749 N.ar    1  UNL1       -0.1202
     10 N           7.5145   41.5154    8.5698 N.ar    1  UNL1       -0.1400
     11 N           6.9673   41.5364    9.7738 N.ar    1  UNL1       -0.1881
     12 S           9.3812   41.4807   10.3621 S.2     1  UNL1       -0.0111
     13 C           4.4728   41.5279    9.4780 C.3     1  UNL1        0.0677
     14 C           4.3523   43.8392    8.5441 C.3     1  UNL1        0.0005
     15 C           3.7638   42.8703    9.5522 C.3     1  UNL1        0.0080
     16 C          11.8159   41.9036    6.2104 C.3     1  UNL1        0.1866
     17 C          13.9797   43.2947    6.2467 C.2     1  UNL1        0.2555
     18 C          15.2216   43.2712    7.0100 C.ar    1  UNL1        0.0584
     19 C          16.2602   44.1970    7.0829 C.ar    1  UNL1        0.0047
     20 C          17.3393   43.9028    7.9348 C.ar    1  UNL1        0.0001
     21 C          17.3557   42.7090    8.6878 C.ar    1  UNL1        0.0001
     22 C          16.2930   41.7925    8.6004 C.ar    1  UNL1        0.0047
     23 C          15.2374   42.1048    7.7465 C.ar    1  UNL1        0.0584
     24 C          14.0059   41.3811    7.4546 C.2     1  UNL1        0.2555
     25 N          13.2289   42.1056    6.4991 N.am    1  UNL1       -0.2136
     26 O          13.5971   44.2280    5.4925 O.2     1  UNL1       -0.2695
     27 O          13.6513   40.2915    7.9774 O.2     1  UNL1       -0.2695
@<TRIPOS>BOND
     1    14    15    1
     2    15    13    1
     3    13     5    1
     4     6    12   ar
     5     7    12   ar
     6     7     2    1
     7    16     1    1
     8    16    25    1
     9    17    18    1
    10    19    20   ar
    11    21    22   ar
    12    23    24    1
    13    23    18   ar
    14    24    25   am
    15     8     9   ar
    16     2     1   am
    17    25    17   am
    18    11    10   ar
    19    11     5   ar
    20    11     6   ar
    21     5     8   ar
    22     6     9   ar
    23     7    10   ar
    24     1     3    2
    25    17    26    2
    26    18    19   ar
    27    20    21   ar
    28    22    23   ar
    29    24    27    2
    30     2     4    1
@<TRIPOS>MOLECULE
MolPort-010-852-379 41076406 ChemDiv-G952-3399 MCULE-5574678977 PubChem-52095938 ZINC000041076406 ZINC41076406
 27 30 0 0 0
SMALL
GASTEIGER

@<TRIPOS>ATOM
      1 C          12.5659   40.5930    8.4624 C.2     1  UNL1        0.2483
      2 N          12.5801   41.3507    7.2476 N.am    1  UNL1       -0.2613
      3 O          13.4780   40.7161    9.3215 O.2     1  UNL1       -0.2728
      4 H          11.8473   41.1833    6.6117 H       1  UNL1        0.1568
      5 C          16.6260   43.9999    7.1605 C.ar    1  UNL1        0.1643
      6 C          14.9232   44.0238    5.9313 C.ar    1  UNL1        0.2195
      7 C          13.5550   42.3283    6.8660 C.ar    1  UNL1        0.1880
      8 N          16.8213   44.9413    6.1975 N.ar    1  UNL1       -0.1310
      9 N          15.7364   44.9592    5.4121 N.ar    1  UNL1       -0.1202
     10 N          14.7265   42.4735    7.5479 N.ar    1  UNL1       -0.1400
     11 N          15.4337   43.4343    6.9768 N.ar    1  UNL1       -0.1881
     12 S          13.4182   43.4150    5.5231 S.2     1  UNL1       -0.0111
     13 C          17.6030   43.6311    8.2280 C.3     1  UNL1        0.0677
     14 C          17.3079   41.3514    9.1999 C.3     1  UNL1        0.0005
     15 C          17.9999   42.1675    8.1246 C.3     1  UNL1        0.0080
     16 C          11.4290   39.6687    8.7317 C.3     1  UNL1        0.1866
     17 C           9.1030   40.2027    7.7707 C.2     1  UNL1        0.2555
     18 C           7.8807   40.8143    8.2780 C.ar    1  UNL1        0.0584
     19 C           6.6029   40.8820    7.7267 C.ar    1  UNL1        0.0047
     20 C           5.6040   41.5340    8.4709 C.ar    1  UNL1        0.0001
     21 C           5.8976   42.0927    9.7334 C.ar    1  UNL1        0.0001
     22 C           7.1942   42.0072   10.2704 C.ar    1  UNL1        0.0047
     23 C           8.1674   41.3599    9.5122 C.ar    1  UNL1        0.0584
     24 C           9.5735   41.0981    9.7952 C.2     1  UNL1        0.2555
     25 N          10.1698   40.3996    8.7006 N.am    1  UNL1       -0.2136
     26 O           9.2142   39.5686    6.6883 O.2     1  UNL1       -0.2695
     27 O          10.1816   41.4107   10.8529 O.2     1  UNL1       -0.2695
@<TRIPOS>BOND
     1    14    15    1
     2    15    13    1
     3    13     5    1
     4     6    12   ar
     5     7    12   ar
     6     7     2    1
     7    16     1    1
     8    16    25    1
     9    17    18    1
    10    19    20   ar
    11    21    22   ar
    12    23    24    1
    13    23    18   ar
    14    24    25   am
    15     8     9   ar
    16     2     1   am
    17    25    17   am
    18    11    10   ar
    19    11     5   ar
    20    11     6   ar
    21     5     8   ar
    22     6     9   ar
    23     7    10   ar
    24     1     3    2
    25    17    26    2
    26    18    19   ar
    27    20    21   ar
    28    22    23   ar
    29    24    27    2
    30     2     4    1
@<TRIPOS>MOLECULE
MolPort-010-852-379 41076406 ChemDiv-G952-3399 MCULE-5574678977 PubChem-52095938 ZINC000041076406 ZINC41076406
 27 30 0 0 0
SMALL
GASTEIGER

@<TRIPOS>ATOM
      1 C          10.7495   41.8354    7.1875 C.2     1  UNL1        0.2483
      2 N           9.4411   41.4200    6.7805 N.am    1  UNL1       -0.2613
      3 O          10.9236   42.5278    8.2245 O.2     1  UNL1       -0.2728
      4 H           9.3798   40.9022    5.9454 H       1  UNL1        0.1568
      5 C           6.1139   41.6959   10.2803 C.ar    1  UNL1        0.1643
      6 C           6.0641   42.2897    8.2664 C.ar    1  UNL1        0.2195
      7 C           8.2126   41.6833    7.4684 C.ar    1  UNL1        0.1880
      8 N           4.9004   42.2647   10.0442 N.ar    1  UNL1       -0.1310
      9 N           4.8656   42.6440    8.7600 N.ar    1  UNL1       -0.1202
     10 N           8.0459   41.3615    8.7825 N.ar    1  UNL1       -0.1400
     11 N           6.8298   41.7223    9.1570 N.ar    1  UNL1       -0.1881
     12 S           6.8154   42.4412    6.7781 S.2     1  UNL1       -0.0111
     13 C           6.5845   41.1627   11.5935 C.3     1  UNL1        0.0677
     14 C           8.9105   41.0959   12.4956 C.3     1  UNL1        0.0005
     15 C           7.7379   41.9894   12.1382 C.3     1  UNL1        0.0080
     16 C          11.9316   41.4074    6.3881 C.3     1  UNL1        0.1866
     17 C          13.8902   41.0890    8.0256 C.2     1  UNL1        0.2555
     18 C          15.2386   41.6279    8.1557 C.ar    1  UNL1        0.0584
     19 C          16.2956   41.2410    8.9766 C.ar    1  UNL1        0.0047
     20 C          17.5039   41.9511    8.8644 C.ar    1  UNL1        0.0001
     21 C          17.6298   43.0145    7.9449 C.ar    1  UNL1        0.0001
     22 C          16.5496   43.3830    7.1238 C.ar    1  UNL1        0.0047
     23 C          15.3619   42.6669    7.2565 C.ar    1  UNL1        0.0584
     24 C          14.0924   42.7937    6.5509 C.2     1  UNL1        0.2555
     25 N          13.1610   41.8293    7.0450 N.am    1  UNL1       -0.2136
     26 O          13.4282   40.1019    8.6568 O.2     1  UNL1       -0.2695
     27 O          13.8445   43.6088    5.6233 O.2     1  UNL1       -0.2695
@<TRIPOS>BOND
     1    14    15    1
     2    15    13    1
     3    13     5    1
     4     6    12   ar
     5     7    12   ar
     6     7     2    1
     7    16     1    1
     8    16    25    1
     9    17    18    1
    10    19    20   ar
    11    21    22   ar
    12    23    24    1
    13    23    18   ar
    14    24    25   am
    15     8     9   ar
    16     2     1   am
    17    25    17   am
    18    11    10   ar
    19    11     5   ar
    20    11     6   ar
    21     5     8   ar
    22     6     9   ar
    23     7    10   ar
    24     1     3    2
    25    17    26    2
    26    18    19   ar
    27    20    21   ar
    28    22    23   ar
    29    24    27    2
    30     2     4    1
@<TRIPOS>MOLECULE
MolPort-010-852-379 41076406 ChemDiv-G952-3399 MCULE-5574678977 PubChem-52095938 ZINC000041076406 ZINC41076406
 27 30 0 0 0
SMALL
GASTEIGER

@<TRIPOS>ATOM
      1 C          11.2145   41.2824    6.1542 C.2     1  UNL1        0.2483
      2 N          12.2045   42.3068    6.2972 N.am    1  UNL1       -0.2613
      3 O          11.4172   40.1127    6.5737 O.2     1  UNL1       -0.2728
      4 H          11.9857   43.1906    5.9227 H       1  UNL1        0.1568
      5 C          15.7866   40.6367    9.0855 C.ar    1  UNL1        0.1643
      6 C          15.7070   42.2521    7.7457 C.ar    1  UNL1        0.2195
      7 C          13.4820   42.1727    6.9312 C.ar    1  UNL1        0.1880
      8 N          17.0163   41.2190    9.0625 N.ar    1  UNL1       -0.1310
      9 N          16.9684   42.2502    8.2090 N.ar    1  UNL1       -0.1202
     10 N          13.7287   41.1877    7.8407 N.ar    1  UNL1       -0.1400
     11 N          14.9807   41.2951    8.2536 N.ar    1  UNL1       -0.1881
     12 S          14.8616   43.1796    6.6379 S.2     1  UNL1       -0.0111
     13 C          15.4089   39.4319    9.8830 C.3     1  UNL1        0.0677
     14 C          14.1315   38.6748   11.8890 C.3     1  UNL1        0.0005
     15 C          14.2387   39.7313   10.8057 C.3     1  UNL1        0.0080
     16 C           9.9036   41.6176    5.5305 C.3     1  UNL1        0.1866
     17 C           7.5547   41.3162    6.5357 C.2     1  UNL1        0.2555
     18 C           6.9791   41.3668    7.8742 C.ar    1  UNL1        0.0584
     19 C           5.7176   40.9958    8.3346 C.ar    1  UNL1        0.0047
     20 C           5.4527   41.1459    9.7072 C.ar    1  UNL1        0.0001
     21 C           6.4409   41.6523   10.5787 C.ar    1  UNL1        0.0001
     22 C           7.7084   42.0154   10.0904 C.ar    1  UNL1        0.0047
     23 C           7.9451   41.8611    8.7261 C.ar    1  UNL1        0.0584
     24 C           9.1392   42.1276    7.9332 C.2     1  UNL1        0.2555
     25 N           8.8935   41.8147    6.5608 N.am    1  UNL1       -0.2136
     26 O           6.9810   40.8772    5.5041 O.2     1  UNL1       -0.2695
     27 O          10.2401   42.5463    8.3791 O.2     1  UNL1       -0.2695
@<TRIPOS>BOND
     1    14    15    1
     2    15    13    1
     3    13     5    1
     4     6    12   ar
     5     7    12   ar
     6     7     2    1
     7    16     1    1
     8    16    25    1
     9    17    18    1
    10    19    20   ar
    11    21    22   ar
    12    23    24    1
    13    23    18   ar
    14    24    25   am
    15     8     9   ar
    16     2     1   am
    17    25    17   am
    18    11    10   ar
    19    11     5   ar
    20    11     6   ar
    21     5     8   ar
    22     6     9   ar
    23     7    10   ar
    24     1     3    2
    25    17    26    2
    26    18    19   ar
    27    20    21   ar
    28    22    23   ar
    29    24    27    2
    30     2     4    1
@<TRIPOS>MOLECULE
MolPort-010-852-379 41076406 ChemDiv-G952-3399 MCULE-5574678977 PubChem-52095938 ZINC000041076406 ZINC41076406
 27 30 0 0 0
SMALL
GASTEIGER

@<TRIPOS>ATOM
      1 C           9.1783   42.9630    8.5085 C.2     1  UNL1        0.2483
      2 N           9.9070   41.8799    7.9202 N.am    1  UNL1       -0.2613
      3 O           9.6670   43.6491    9.4443 O.2     1  UNL1       -0.2728
      4 H           9.4513   41.3724    7.2104 H       1  UNL1        0.1568
      5 C          13.5737   39.3753    9.8379 C.ar    1  UNL1        0.1643
      6 C          13.5479   41.0590    8.5827 C.ar    1  UNL1        0.2195
      7 C          11.2336   41.4619    8.2626 C.ar    1  UNL1        0.1880
      8 N          14.8640   39.7105    9.5649 N.ar    1  UNL1       -0.1310
      9 N          14.8507   40.7846    8.7648 N.ar    1  UNL1       -0.1202
     10 N          11.4582   40.3911    9.0758 N.ar    1  UNL1       -0.1400
     11 N          12.7637   40.2288    9.2130 N.ar    1  UNL1       -0.1881
     12 S          12.6976   42.2014    7.7029 S.2     1  UNL1       -0.0111
     13 C          13.1330   38.2167   10.6707 C.3     1  UNL1        0.0677
     14 C          12.1102   35.9401   10.6608 C.3     1  UNL1        0.0005
     15 C          12.4900   37.1392    9.8127 C.3     1  UNL1        0.0080
     16 C           7.8303   43.3085    7.9765 C.3     1  UNL1        0.1866
     17 C           5.4698   43.5151    8.9786 C.2     1  UNL1        0.2555
     18 C           4.6428   42.7134    9.8724 C.ar    1  UNL1        0.0584
     19 C           3.2936   42.8221   10.2023 C.ar    1  UNL1        0.0047
     20 C           2.7610   41.8758   11.0954 C.ar    1  UNL1        0.0001
     21 C           3.5750   40.8536   11.6291 C.ar    1  UNL1        0.0001
     22 C           4.9332   40.7624   11.2770 C.ar    1  UNL1        0.0047
     23 C           5.4381   41.7139   10.3936 C.ar    1  UNL1        0.0584
     24 C           6.7747   41.8757    9.8339 C.2     1  UNL1        0.2555
     25 N           6.8078   43.0139    8.9707 N.am    1  UNL1       -0.2136
     26 O           5.0745   44.4914    8.2882 O.2     1  UNL1       -0.2695
     27 O           7.7584   41.1189   10.0479 O.2     1  UNL1       -0.2695
@<TRIPOS>BOND
     1    14    15    1
     2    15    13    1
     3    13     5    1
     4     6    12   ar
     5     7    12   ar
     6     7     2    1
     7    16     1    1
     8    16    25    1
     9    17    18    1
    10    19    20   ar
    11    21    22   ar
    12    23    24    1
    13    23    18   ar
    14    24    25   am
    15     8     9   ar
    16     2     1   am
    17    25    17   am
    18    11    10   ar
    19    11     5   ar
    20    11     6   ar
    21     5     8   ar
    22     6     9   ar
    23     7    10   ar
    24     1     3    2
    25    17    26    2
    26    18    19   ar
    27    20    21   ar
    28    22    23   ar
    29    24    27    2
    30     2     4    1
