@<TRIPOS>MOLECULE
MolPort-035-884-037 5462314 PubChem-6013747 ZINC000005462314 ZINC05462314
 24 25 0 0 0
SMALL
GASTEIGER

@<TRIPOS>ATOM
      1 C          13.8600   41.1777    7.6791 C.ar    1  UNL1        0.1276
      2 C          14.8674   42.0998    7.4607 C.ar    1  UNL1        0.1048
      3 C          12.7959   41.6129    6.8990 C.ar    1  UNL1        0.1619
      4 N          14.3863   43.0132    6.5938 N.ar    1  UNL1       -0.2435
      5 N          13.1346   42.7444    6.2595 N.ar    1  UNL1       -0.1535
      6 C          10.3230   41.4595    7.4221 C.2     1  UNL1        0.2506
      7 O          10.4045   42.3145    8.3464 O.2     1  UNL1       -0.2698
      8 N          11.5089   41.0023    6.7611 N.am    1  UNL1       -0.2642
      9 H          11.4336   40.2162    6.1732 H       1  UNL1        0.1566
     10 C           9.0109   40.9051    7.0465 C.ar    1  UNL1        0.0537
     11 C           8.8272   39.5176    6.9577 C.ar    1  UNL1        0.0045
     12 C           7.5830   38.9906    6.5988 C.ar    1  UNL1        0.0001
     13 C           6.5136   39.8477    6.3257 C.ar    1  UNL1        0.0000
     14 C           6.6880   41.2316    6.4112 C.ar    1  UNL1        0.0001
     15 C           7.9322   41.7585    6.7700 C.ar    1  UNL1        0.0045
     16 C          13.9169   40.0786    8.6552 C.2     1  UNL1        0.3455
     17 O          14.9986   39.4653    8.8644 O.2     1  UNL1       -0.2447
     18 O          12.7497   39.6941    9.3181 O.3     1  UNL1       -0.4453
     19 C          13.4554   39.3733   11.5862 C.3     1  UNL1        0.0513
     20 C          12.4866   40.0776   10.6595 C.3     1  UNL1        0.2089
     21 C          15.1110   44.1825    6.1276 C.3     1  UNL1        0.1533
     22 C          16.2919   44.4311    7.0039 C.2     1  UNL1       -0.0045
     23 C          17.4714   43.9033    6.6951 C.2     1  UNL1       -0.0284
     24 C          18.6499   44.1520    7.5704 C.3     1  UNL1        0.0304
@<TRIPOS>BOND
     1    19    20    1
     2    20    18    1
     3    16    18    1
     4    16     1    1
     5     2     4   ar
     6     3     8    1
     7     3     1   ar
     8     6    10    1
     9    11    12   ar
    10    13    14   ar
    11    15    10   ar
    12    21     4    1
    13    21    22    1
    14    24    23    1
    15     4     5   ar
    16     8     6   am
    17    16    17    2
    18     1     2   ar
    19     3     5   ar
    20     6     7    2
    21    10    11   ar
    22    12    13   ar
    23    14    15   ar
    24    22    23    2
    25     8     9    1
@<TRIPOS>MOLECULE
MolPort-035-884-037 5462314 PubChem-6013747 ZINC000005462314 ZINC05462314
 24 25 0 0 0
SMALL
GASTEIGER

@<TRIPOS>ATOM
      1 C          10.6932   41.9221    8.3408 C.ar    1  UNL1        0.1276
      2 C           9.4810   41.5829    7.7677 C.ar    1  UNL1        0.1048
      3 C          11.6525   41.5366    7.4127 C.ar    1  UNL1        0.1619
      4 N           9.7516   41.0305    6.5682 N.ar    1  UNL1       -0.2435
      5 N          11.0550   40.9791    6.3469 N.ar    1  UNL1       -0.1535
      6 C          13.8239   42.7555    6.9527 C.2     1  UNL1        0.2506
      7 O          13.2774   43.5431    6.1322 O.2     1  UNL1       -0.2698
      8 N          13.0731   41.6747    7.5185 N.am    1  UNL1       -0.2642
      9 H          13.5668   40.9811    8.0129 H       1  UNL1        0.1566
     10 C          15.2448   42.9268    7.3018 C.ar    1  UNL1        0.0537
     11 C          15.8864   41.9989    8.1350 C.ar    1  UNL1        0.0045
     12 C          17.2340   42.1620    8.4691 C.ar    1  UNL1        0.0001
     13 C          17.9498   43.2547    7.9724 C.ar    1  UNL1        0.0000
     14 C          17.3181   44.1845    7.1420 C.ar    1  UNL1        0.0001
     15 C          15.9704   44.0214    6.8081 C.ar    1  UNL1        0.0045
     16 C          10.8672   42.4403    9.7065 C.2     1  UNL1        0.3455
     17 O          11.0099   43.6770    9.9072 O.2     1  UNL1       -0.2447
     18 O          10.9138   41.5433   10.7756 O.3     1  UNL1       -0.4453
     19 C          12.7178   39.9715   10.9180 C.3     1  UNL1        0.0513
     20 C          11.2525   40.1764   10.5950 C.3     1  UNL1        0.2089
     21 C           8.7577   40.4961    5.6535 C.3     1  UNL1        0.1533
     22 C           9.2420   39.2115    5.0709 C.2     1  UNL1       -0.0045
     23 C           9.4259   39.1041    3.7595 C.2     1  UNL1       -0.0284
     24 C           9.9094   37.8212    3.1787 C.3     1  UNL1        0.0304
@<TRIPOS>BOND
     1    19    20    1
     2    20    18    1
     3    16    18    1
     4    16     1    1
     5     2     4   ar
     6     3     8    1
     7     3     1   ar
     8     6    10    1
     9    11    12   ar
    10    13    14   ar
    11    15    10   ar
    12    21     4    1
    13    21    22    1
    14    24    23    1
    15     4     5   ar
    16     8     6   am
    17    16    17    2
    18     1     2   ar
    19     3     5   ar
    20     6     7    2
    21    10    11   ar
    22    12    13   ar
    23    14    15   ar
    24    22    23    2
    25     8     9    1
@<TRIPOS>MOLECULE
MolPort-035-884-037 5462314 PubChem-6013747 ZINC000005462314 ZINC05462314
 24 25 0 0 0
SMALL
GASTEIGER

@<TRIPOS>ATOM
      1 C          11.1325   41.3141    9.1186 C.ar    1  UNL1        0.1276
      2 C           9.7829   41.3755    8.8226 C.ar    1  UNL1        0.1048
      3 C          11.7767   41.7128    7.9541 C.ar    1  UNL1        0.1619
      4 N           9.6769   41.7917    7.5448 N.ar    1  UNL1       -0.2435
      5 N          10.8685   41.9823    7.0021 N.ar    1  UNL1       -0.1535
      6 C          13.7981   42.8633    6.9527 C.2     1  UNL1        0.2506
      7 O          13.0871   43.6136    6.2290 O.2     1  UNL1       -0.2698
      8 N          13.1860   41.8301    7.7337 N.am    1  UNL1       -0.2642
      9 H          13.7735   41.1564    8.1462 H       1  UNL1        0.1566
     10 C          15.2620   43.0275    6.9671 C.ar    1  UNL1        0.0537
     11 C          15.8924   43.8464    6.0190 C.ar    1  UNL1        0.0045
     12 C          17.2818   44.0007    6.0301 C.ar    1  UNL1        0.0001
     13 C          18.0509   43.3366    6.9895 C.ar    1  UNL1        0.0000
     14 C          17.4311   42.5182    7.9375 C.ar    1  UNL1        0.0001
     15 C          16.0416   42.3638    7.9263 C.ar    1  UNL1        0.0045
     16 C          11.7006   40.7879   10.3694 C.2     1  UNL1        0.3455
     17 O          11.0020   40.7402   11.4181 O.2     1  UNL1       -0.2447
     18 O          13.0358   40.3797   10.3934 O.3     1  UNL1       -0.4453
     19 C          14.9746   39.1409   11.0652 C.3     1  UNL1        0.0513
     20 C          13.5197   39.4493   11.3504 C.3     1  UNL1        0.2089
     21 C           8.4275   41.9525    6.8215 C.3     1  UNL1        0.1533
     22 C           7.6464   43.0828    7.4017 C.2     1  UNL1       -0.0045
     23 C           6.3860   43.2791    7.0305 C.2     1  UNL1       -0.0284
     24 C           5.6068   44.4077    7.6101 C.3     1  UNL1        0.0304
@<TRIPOS>BOND
     1    19    20    1
     2    20    18    1
     3    16    18    1
     4    16     1    1
     5     2     4   ar
     6     3     8    1
     7     3     1   ar
     8     6    10    1
     9    11    12   ar
    10    13    14   ar
    11    15    10   ar
    12    21     4    1
    13    21    22    1
    14    24    23    1
    15     4     5   ar
    16     8     6   am
    17    16    17    2
    18     1     2   ar
    19     3     5   ar
    20     6     7    2
    21    10    11   ar
    22    12    13   ar
    23    14    15   ar
    24    22    23    2
    25     8     9    1
@<TRIPOS>MOLECULE
MolPort-035-884-037 5462314 PubChem-6013747 ZINC000005462314 ZINC05462314
 24 25 0 0 0
SMALL
GASTEIGER

@<TRIPOS>ATOM
      1 C          13.4365   41.3178    8.2758 C.ar    1  UNL1        0.1276
      2 C          14.3519   41.7612    7.3387 C.ar    1  UNL1        0.1048
      3 C          12.4576   42.3028    8.3195 C.ar    1  UNL1        0.1619
      4 N          13.9031   42.9457    6.8772 N.ar    1  UNL1       -0.2435
      5 N          12.7729   43.2943    7.4703 N.ar    1  UNL1       -0.1535
      6 C           9.9818   41.9099    8.6775 C.2     1  UNL1        0.2506
      7 O           9.7760   41.7040    7.4497 O.2     1  UNL1       -0.2698
      8 N          11.2771   42.3234    9.1283 N.am    1  UNL1       -0.2642
      9 H          11.3608   42.6429   10.0558 H       1  UNL1        0.1566
     10 C           8.8798   41.7590    9.6434 C.ar    1  UNL1        0.0537
     11 C           9.1459   41.7068   11.0194 C.ar    1  UNL1        0.0045
     12 C           8.1011   41.5609   11.9366 C.ar    1  UNL1        0.0001
     13 C           6.7823   41.4657   11.4842 C.ar    1  UNL1        0.0000
     14 C           6.5081   41.5162   10.1148 C.ar    1  UNL1        0.0001
     15 C           7.5530   41.6620    9.1976 C.ar    1  UNL1        0.0045
     16 C          13.6002   40.1229    9.1181 C.2     1  UNL1        0.3455
     17 O          13.7466   38.9861    8.5927 O.2     1  UNL1       -0.2447
     18 O          13.5505   40.2557   10.5072 O.3     1  UNL1       -0.4453
     19 C          14.6968   38.7038   11.9295 C.3     1  UNL1        0.0513
     20 C          13.3616   39.1382   11.3623 C.3     1  UNL1        0.2089
     21 C          14.5912   43.7757    5.9038 C.3     1  UNL1        0.1533
     22 C          15.8799   44.2645    6.4734 C.2     1  UNL1       -0.0045
     23 C          16.5504   43.5138    7.3406 C.2     1  UNL1       -0.0284
     24 C          17.8369   44.0025    7.9088 C.3     1  UNL1        0.0304
@<TRIPOS>BOND
     1    19    20    1
     2    20    18    1
     3    16    18    1
     4    16     1    1
     5     2     4   ar
     6     3     8    1
     7     3     1   ar
     8     6    10    1
     9    11    12   ar
    10    13    14   ar
    11    15    10   ar
    12    21     4    1
    13    21    22    1
    14    24    23    1
    15     4     5   ar
    16     8     6   am
    17    16    17    2
    18     1     2   ar
    19     3     5   ar
    20     6     7    2
    21    10    11   ar
    22    12    13   ar
    23    14    15   ar
    24    22    23    2
    25     8     9    1
@<TRIPOS>MOLECULE
MolPort-035-884-037 5462314 PubChem-6013747 ZINC000005462314 ZINC05462314
 24 25 0 0 0
SMALL
GASTEIGER

@<TRIPOS>ATOM
      1 C           9.9851   42.4668   10.1073 C.ar    1  UNL1        0.1276
      2 C          11.2978   42.0619   10.2671 C.ar    1  UNL1        0.1048
      3 C           9.2487   41.2903   10.0453 C.ar    1  UNL1        0.1619
      4 N          11.2954   40.7141   10.2935 N.ar    1  UNL1       -0.2435
      5 N          10.0718   40.2336   10.1436 N.ar    1  UNL1       -0.1535
      6 C           6.8786   41.4200   10.9277 C.2     1  UNL1        0.2506
      7 O           7.2668   41.5832   12.1172 O.2     1  UNL1       -0.2698
      8 N           7.8321   41.1554    9.8918 N.am    1  UNL1       -0.2642
      9 H           7.4905   40.8615    9.0166 H       1  UNL1        0.1566
     10 C           5.4408   41.4666   10.6102 C.ar    1  UNL1        0.0537
     11 C           4.9775   41.0369    9.3582 C.ar    1  UNL1        0.0045
     12 C           3.6136   41.0833    9.0550 C.ar    1  UNL1        0.0001
     13 C           2.7031   41.5602   10.0018 C.ar    1  UNL1        0.0000
     14 C           3.1562   41.9910   11.2517 C.ar    1  UNL1        0.0001
     15 C           4.5202   41.9447   11.5548 C.ar    1  UNL1        0.0045
     16 C           9.5477   43.8565    9.9040 C.2     1  UNL1        0.3455
     17 O          10.3771   44.8038    9.9723 O.2     1  UNL1       -0.2447
     18 O           8.1955   44.1195    9.6749 O.3     1  UNL1       -0.4453
     19 C           6.1723   44.4653    8.4371 C.3     1  UNL1        0.0513
     20 C           7.6746   44.2885    8.3651 C.3     1  UNL1        0.2089
     21 C          12.4798   39.8806   10.4053 C.3     1  UNL1        0.1533
     22 C          13.6451   40.5668    9.7764 C.2     1  UNL1       -0.0045
     23 C          13.6341   40.8379    8.4759 C.2     1  UNL1       -0.0284
     24 C          14.7979   41.5229    7.8488 C.3     1  UNL1        0.0304
@<TRIPOS>BOND
     1    19    20    1
     2    20    18    1
     3    16    18    1
     4    16     1    1
     5     2     4   ar
     6     3     8    1
     7     3     1   ar
     8     6    10    1
     9    11    12   ar
    10    13    14   ar
    11    15    10   ar
    12    21     4    1
    13    21    22    1
    14    24    23    1
    15     4     5   ar
    16     8     6   am
    17    16    17    2
    18     1     2   ar
    19     3     5   ar
    20     6     7    2
    21    10    11   ar
    22    12    13   ar
    23    14    15   ar
    24    22    23    2
    25     8     9    1
@<TRIPOS>MOLECULE
MolPort-035-884-037 5462314 PubChem-6013747 ZINC000005462314 ZINC05462314
 24 25 0 0 0
SMALL
GASTEIGER

@<TRIPOS>ATOM
      1 C          12.6488   42.0375    6.5296 C.ar    1  UNL1        0.1276
      2 C          12.9465   43.1553    5.7715 C.ar    1  UNL1        0.1048
      3 C          13.8047   41.7731    7.2535 C.ar    1  UNL1        0.1619
      4 N          14.2170   43.5017    6.0600 N.ar    1  UNL1       -0.2435
      5 N          14.7537   42.6693    6.9373 N.ar    1  UNL1       -0.1535
      6 C          15.2208   40.5518    8.9610 C.2     1  UNL1        0.2506
      7 O          16.2520   41.2188    8.6712 O.2     1  UNL1       -0.2698
      8 N          14.0199   40.7198    8.1983 N.am    1  UNL1       -0.2642
      9 H          13.2948   40.0676    8.3329 H       1  UNL1        0.1566
     10 C          15.2627   39.5742   10.0623 C.ar    1  UNL1        0.0537
     11 C          16.4110   38.7983   10.2775 C.ar    1  UNL1        0.0045
     12 C          16.4507   37.8685   11.3206 C.ar    1  UNL1        0.0001
     13 C          15.3420   37.7075   12.1559 C.ar    1  UNL1        0.0000
     14 C          14.1934   38.4760   11.9482 C.ar    1  UNL1        0.0001
     15 C          14.1537   39.4058   10.9050 C.ar    1  UNL1        0.0045
     16 C          11.4063   41.2560    6.4317 C.2     1  UNL1        0.3455
     17 O          10.8595   41.0630    5.3120 O.2     1  UNL1       -0.2447
     18 O          10.8161   40.7645    7.5978 O.3     1  UNL1       -0.4453
     19 C          11.0294   41.5088    9.8662 C.3     1  UNL1        0.0513
     20 C          10.2493   41.6261    8.5735 C.3     1  UNL1        0.2089
     21 C          14.9399   44.6030    5.4481 C.3     1  UNL1        0.1533
     22 C          16.1936   44.8732    6.2095 C.2     1  UNL1       -0.0045
     23 C          17.1069   43.9181    6.3462 C.2     1  UNL1       -0.0284
     24 C          18.3582   44.1887    7.1065 C.3     1  UNL1        0.0304
@<TRIPOS>BOND
     1    19    20    1
     2    20    18    1
     3    16    18    1
     4    16     1    1
     5     2     4   ar
     6     3     8    1
     7     3     1   ar
     8     6    10    1
     9    11    12   ar
    10    13    14   ar
    11    15    10   ar
    12    21     4    1
    13    21    22    1
    14    24    23    1
    15     4     5   ar
    16     8     6   am
    17    16    17    2
    18     1     2   ar
    19     3     5   ar
    20     6     7    2
    21    10    11   ar
    22    12    13   ar
    23    14    15   ar
    24    22    23    2
    25     8     9    1
@<TRIPOS>MOLECULE
MolPort-035-884-037 5462314 PubChem-6013747 ZINC000005462314 ZINC05462314
 24 25 0 0 0
SMALL
GASTEIGER

@<TRIPOS>ATOM
      1 C          10.1053   42.1262    9.6713 C.ar    1  UNL1        0.1276
      2 C          11.3578   41.5599    9.5192 C.ar    1  UNL1        0.1048
      3 C           9.2100   41.0829    9.4707 C.ar    1  UNL1        0.1619
      4 N          11.1705   40.2534    9.2450 N.ar    1  UNL1       -0.2435
      5 N           9.8828   39.9538    9.1947 N.ar    1  UNL1       -0.1535
      6 C           7.0271   41.3780   10.7199 C.2     1  UNL1        0.2506
      7 O           7.5968   41.3398   11.8451 O.2     1  UNL1       -0.2698
      8 N           7.7809   41.1377    9.5256 N.am    1  UNL1       -0.2642
      9 H           7.2830   41.0013    8.6873 H       1  UNL1        0.1566
     10 C           5.5789   41.6351   10.6371 C.ar    1  UNL1        0.0537
     11 C           4.7075   41.0941   11.5936 C.ar    1  UNL1        0.0045
     12 C           3.3328   41.3353   11.5144 C.ar    1  UNL1        0.0001
     13 C           2.8195   42.1191   10.4775 C.ar    1  UNL1        0.0000
     14 C           3.6805   42.6615    9.5197 C.ar    1  UNL1        0.0001
     15 C           5.0553   42.4202    9.5989 C.ar    1  UNL1        0.0045
     16 C           9.8433   43.5618    9.8571 C.2     1  UNL1        0.3455
     17 O          10.7991   44.3788    9.9501 O.2     1  UNL1       -0.2447
     18 O           8.5240   44.0052    9.9707 O.3     1  UNL1       -0.4453
     19 C           7.1044   44.5731    8.1249 C.3     1  UNL1        0.0513
     20 C           8.0289   45.0937    9.2054 C.3     1  UNL1        0.2089
     21 C          12.2308   39.2987    8.9725 C.3     1  UNL1        0.1533
     22 C          11.9507   38.0139    9.6762 C.2     1  UNL1       -0.0045
     23 C          12.8585   37.0439    9.6749 C.2     1  UNL1       -0.0284
     24 C          12.5782   35.7615   10.3777 C.3     1  UNL1        0.0304
@<TRIPOS>BOND
     1    19    20    1
     2    20    18    1
     3    16    18    1
     4    16     1    1
     5     2     4   ar
     6     3     8    1
     7     3     1   ar
     8     6    10    1
     9    11    12   ar
    10    13    14   ar
    11    15    10   ar
    12    21     4    1
    13    21    22    1
    14    24    23    1
    15     4     5   ar
    16     8     6   am
    17    16    17    2
    18     1     2   ar
    19     3     5   ar
    20     6     7    2
    21    10    11   ar
    22    12    13   ar
    23    14    15   ar
    24    22    23    2
    25     8     9    1
@<TRIPOS>MOLECULE
MolPort-035-884-037 5462314 PubChem-6013747 ZINC000005462314 ZINC05462314
 24 25 0 0 0
SMALL
GASTEIGER

@<TRIPOS>ATOM
      1 C          11.9211   39.0872    8.5652 C.ar    1  UNL1        0.1276
      2 C          10.5707   38.9108    8.3245 C.ar    1  UNL1        0.1048
      3 C          12.2904   40.1706    7.7776 C.ar    1  UNL1        0.1619
      4 N          10.2000   39.8568    7.4386 N.ar    1  UNL1       -0.2435
      5 N          11.2273   40.6124    7.0859 N.ar    1  UNL1       -0.1535
      6 C          13.8456   42.0267    7.0371 C.2     1  UNL1        0.2506
      7 O          12.9490   42.5830    6.3450 O.2     1  UNL1       -0.2698
      8 N          13.5869   40.7665    7.6672 N.am    1  UNL1       -0.2642
      9 H          14.3514   40.2780    8.0494 H       1  UNL1        0.1566
     10 C          15.1707   42.6569    7.1680 C.ar    1  UNL1        0.0537
     11 C          15.5210   43.7451    6.3556 C.ar    1  UNL1        0.0045
     12 C          16.7793   44.3421    6.4772 C.ar    1  UNL1        0.0001
     13 C          17.6965   43.8548    7.4122 C.ar    1  UNL1        0.0000
     14 C          17.3559   42.7705    8.2254 C.ar    1  UNL1        0.0001
     15 C          16.0977   42.1734    8.1036 C.ar    1  UNL1        0.0045
     16 C          12.7592   38.1920    9.3777 C.2     1  UNL1        0.3455
     17 O          13.4205   37.2669    8.8330 O.2     1  UNL1       -0.2447
     18 O          12.7823   38.3517   10.7647 O.3     1  UNL1       -0.4453
     19 C          14.8593   38.6494   11.9235 C.3     1  UNL1        0.0513
     20 C          13.6079   39.3192   11.3957 C.3     1  UNL1        0.2089
     21 C           8.8657   40.0014    6.8830 C.3     1  UNL1        0.1533
     22 C           8.3888   41.4028    7.0648 C.2     1  UNL1       -0.0045
     23 C           7.4054   41.8738    6.3057 C.2     1  UNL1       -0.0284
     24 C           6.9298   43.2729    6.4878 C.3     1  UNL1        0.0304
@<TRIPOS>BOND
     1    19    20    1
     2    20    18    1
     3    16    18    1
     4    16     1    1
     5     2     4   ar
     6     3     8    1
     7     3     1   ar
     8     6    10    1
     9    11    12   ar
    10    13    14   ar
    11    15    10   ar
    12    21     4    1
    13    21    22    1
    14    24    23    1
    15     4     5   ar
    16     8     6   am
    17    16    17    2
    18     1     2   ar
    19     3     5   ar
    20     6     7    2
    21    10    11   ar
    22    12    13   ar
    23    14    15   ar
    24    22    23    2
    25     8     9    1
@<TRIPOS>MOLECULE
MolPort-035-884-037 5462314 PubChem-6013747 ZINC000005462314 ZINC05462314
 24 25 0 0 0
SMALL
GASTEIGER

@<TRIPOS>ATOM
      1 C          15.7926   38.8842   10.7165 C.ar    1  UNL1        0.1276
      2 C          16.8248   38.0918   11.1849 C.ar    1  UNL1        0.1048
      3 C          16.3683   39.6892    9.7415 C.ar    1  UNL1        0.1619
      4 N          17.9324   38.4394   10.4995 N.ar    1  UNL1       -0.2435
      5 N          17.6784   39.4119    9.6391 N.ar    1  UNL1       -0.1535
      6 C          16.3476   41.8991    8.5052 C.2     1  UNL1        0.2506
      7 O          17.4538   42.2534    8.9980 O.2     1  UNL1       -0.2698
      8 N          15.7239   40.6853    8.9410 N.am    1  UNL1       -0.2642
      9 H          14.7903   40.5259    8.6722 H       1  UNL1        0.1566
     10 C          15.6803   42.7521    7.5066 C.ar    1  UNL1        0.0537
     11 C          14.4559   42.3610    6.9456 C.ar    1  UNL1        0.0045
     12 C          13.8231   43.1686    5.9959 C.ar    1  UNL1        0.0001
     13 C          14.4108   44.3731    5.6000 C.ar    1  UNL1        0.0000
     14 C          15.6311   44.7701    6.1534 C.ar    1  UNL1        0.0001
     15 C          16.2638   43.9625    7.1030 C.ar    1  UNL1        0.0045
     16 C          14.4332   38.9207   11.2776 C.2     1  UNL1        0.3455
     17 O          13.9751   37.9291   11.9074 O.2     1  UNL1       -0.2447
     18 O          13.6397   40.0508   11.0698 O.3     1  UNL1       -0.4453
     19 C          12.0018   41.1471    9.7058 C.3     1  UNL1        0.0513
     20 C          12.3076   39.9550   10.5882 C.3     1  UNL1        0.2089
     21 C          19.2544   37.8761   10.7111 C.3     1  UNL1        0.1533
     22 C          19.1479   36.4095   10.9599 C.2     1  UNL1       -0.0045
     23 C          19.5497   35.5472   10.0324 C.2     1  UNL1       -0.0284
     24 C          19.4431   34.0832   10.2815 C.3     1  UNL1        0.0304
@<TRIPOS>BOND
     1    19    20    1
     2    20    18    1
     3    16    18    1
     4    16     1    1
     5     2     4   ar
     6     3     8    1
     7     3     1   ar
     8     6    10    1
     9    11    12   ar
    10    13    14   ar
    11    15    10   ar
    12    21     4    1
    13    21    22    1
    14    24    23    1
    15     4     5   ar
    16     8     6   am
    17    16    17    2
    18     1     2   ar
    19     3     5   ar
    20     6     7    2
    21    10    11   ar
    22    12    13   ar
    23    14    15   ar
    24    22    23    2
    25     8     9    1
@<TRIPOS>MOLECULE
MolPort-035-884-037 5462314 PubChem-6013747 ZINC000005462314 ZINC05462314
 24 25 0 0 0
SMALL
GASTEIGER

@<TRIPOS>ATOM
      1 C          11.9714   39.0853    8.6978 C.ar    1  UNL1        0.1276
      2 C          10.6527   38.8870    8.3311 C.ar    1  UNL1        0.1048
      3 C          12.4057   40.1532    7.9224 C.ar    1  UNL1        0.1619
      4 N          10.3615   39.8066    7.3894 N.ar    1  UNL1       -0.2435
      5 N          11.4113   40.5653    7.1192 N.ar    1  UNL1       -0.1535
      6 C          14.0670   41.8845    7.1129 C.2     1  UNL1        0.2506
      7 O          13.3069   42.2648    6.1802 O.2     1  UNL1       -0.2698
      8 N          13.7012   40.7615    7.9236 N.am    1  UNL1       -0.2642
      9 H          14.3862   40.3832    8.5211 H       1  UNL1        0.1566
     10 C          15.3478   42.5740    7.3453 C.ar    1  UNL1        0.0537
     11 C          16.2909   42.0364    8.2333 C.ar    1  UNL1        0.0045
     12 C          17.5056   42.6914    8.4565 C.ar    1  UNL1        0.0001
     13 C          17.7858   43.8893    7.7935 C.ar    1  UNL1        0.0000
     14 C          16.8515   44.4324    6.9075 C.ar    1  UNL1        0.0001
     15 C          15.6367   43.7774    6.6844 C.ar    1  UNL1        0.0045
     16 C          12.7343   38.2203    9.6108 C.2     1  UNL1        0.3455
     17 O          13.3533   37.2142    9.1697 O.2     1  UNL1       -0.2447
     18 O          12.7320   38.5020   10.9785 O.3     1  UNL1       -0.4453
     19 C          14.9348   39.3766   10.6208 C.3     1  UNL1        0.0513
     20 C          13.8799   39.0085   11.6430 C.3     1  UNL1        0.2089
     21 C           9.0866   39.9216    6.7029 C.3     1  UNL1        0.1533
     22 C           9.0569   39.0022    5.5290 C.2     1  UNL1       -0.0045
     23 C           9.5955   39.3804    4.3749 C.2     1  UNL1       -0.0284
     24 C           9.5654   38.4618    3.2034 C.3     1  UNL1        0.0304
@<TRIPOS>BOND
     1    19    20    1
     2    20    18    1
     3    16    18    1
     4    16     1    1
     5     2     4   ar
     6     3     8    1
     7     3     1   ar
     8     6    10    1
     9    11    12   ar
    10    13    14   ar
    11    15    10   ar
    12    21     4    1
    13    21    22    1
    14    24    23    1
    15     4     5   ar
    16     8     6   am
    17    16    17    2
    18     1     2   ar
    19     3     5   ar
    20     6     7    2
    21    10    11   ar
    22    12    13   ar
    23    14    15   ar
    24    22    23    2
    25     8     9    1
