@<TRIPOS>MOLECULE
Molport-020-295-054 MCULE-1758090520 PubChem-110267155
 23 25 0 0 0
SMALL
GASTEIGER

@<TRIPOS>ATOM
      1 C          13.0015   40.1427    9.6830 C.ar    1  UNL1        0.0644
      2 C          12.4594   41.8363    8.1174 C.ar    1  UNL1        0.2215
      3 C          11.0671   41.5241   10.0064 C.ar    1  UNL1        0.1031
      4 C          11.8821   40.4852   10.4496 C.ar    1  UNL1        0.0355
      5 N          13.2643   40.8246    8.5371 N.ar    1  UNL1       -0.2179
      6 N          11.3677   42.1780    8.8547 N.ar    1  UNL1       -0.2120
      7 C          16.4372   38.0657   11.1162 C.3     1  UNL1        0.0721
      8 C          15.1714   37.9891   11.9752 C.3     1  UNL1        0.0178
      9 C          14.2229   39.1139   11.5930 C.3     1  UNL1        0.0087
     10 C          13.9189   39.0386   10.1019 C.3     1  UNL1        0.0564
     11 C          15.2227   39.0696    9.2936 C.3     1  UNL1        0.0780
     12 N          16.1429   37.9823    9.6735 N.3     1  UNL1       -0.2736
     13 C          16.7024   35.7085    8.8896 C.3     1  UNL1        0.0173
     14 C          15.5934   36.6620    9.3111 C.3     1  UNL1        0.0576
     15 C          14.6219   36.7771    8.1450 C.3     1  UNL1        0.0173
     16 N          12.7788   42.5247    6.9022 N.pl3   1  UNL1       -0.2667
     17 H          12.1105   42.4862    6.1804 H       1  UNL1        0.1565
     18 C          13.9770   43.2637    6.6361 C.ar    1  UNL1        0.1537
     19 C          15.0918   45.1258    5.6791 C.ar    1  UNL1        0.1210
     20 C          16.3110   44.6414    6.1553 C.ar    1  UNL1        0.1196
     21 C          15.1986   42.7819    7.1112 C.ar    1  UNL1        0.1332
     22 N          13.9531   44.4274    5.9296 N.ar    1  UNL1       -0.2258
     23 N          16.3378   43.4802    6.8609 N.ar    1  UNL1       -0.2378
@<TRIPOS>BOND
     1    13    14    1
     2    14    15    1
     3    14    12    1
     4     7    12    1
     5     7     8    1
     6     8     9    1
     7     9    10    1
     8    10    11    1
     9    10     1    1
    10    11    12    1
    11     2     5   ar
    12     2    16    1
    13     3     6   ar
    14     4     1   ar
    15    19    22   ar
    16    20    23   ar
    17    21    18   ar
    18    16    18    1
    19     1     5   ar
    20     2     6   ar
    21     3     4   ar
    22    18    22   ar
    23    19    20   ar
    24    21    23   ar
    25    16    17    1
@<TRIPOS>MOLECULE
Molport-020-295-054 MCULE-1758090520 PubChem-110267155
 23 25 0 0 0
SMALL
GASTEIGER

@<TRIPOS>ATOM
      1 C          11.7066   40.8006   10.0964 C.ar    1  UNL1        0.0644
      2 C          13.7113   40.9289    8.8403 C.ar    1  UNL1        0.2215
      3 C          13.7064   39.7359   10.8851 C.ar    1  UNL1        0.1031
      4 C          12.3586   40.0350   11.0695 C.ar    1  UNL1        0.0355
      5 N          12.3959   41.2289    9.0063 N.ar    1  UNL1       -0.2179
      6 N          14.3560   40.1853    9.7803 N.ar    1  UNL1       -0.2120
      7 C           7.9783   42.8146    9.6321 C.3     1  UNL1        0.0721
      8 C           8.0716   41.3902    9.0768 C.3     1  UNL1        0.0178
      9 C           9.5308   41.0016    8.9029 C.3     1  UNL1        0.0087
     10 C          10.2604   41.1564   10.2315 C.3     1  UNL1        0.0564
     11 C          10.0926   42.5855   10.7643 C.3     1  UNL1        0.0780
     12 N           8.6759   42.9609   10.9232 N.3     1  UNL1       -0.2736
     13 C           8.9800   41.1228   12.5438 C.3     1  UNL1        0.0173
     14 C           8.0244   42.1652   11.9809 C.3     1  UNL1        0.0576
     15 C           6.8102   41.4256   11.4370 C.3     1  UNL1        0.0173
     16 N          14.3942   41.4041    7.6739 N.pl3   1  UNL1       -0.2667
     17 H          14.0555   41.0940    6.8031 H       1  UNL1        0.1565
     18 C          15.5224   42.2868    7.6525 C.ar    1  UNL1        0.1537
     19 C          17.7760   42.7805    8.2035 C.ar    1  UNL1        0.1210
     20 C          17.6567   44.0236    7.5806 C.ar    1  UNL1        0.1196
     21 C          15.4065   43.5315    7.0300 C.ar    1  UNL1        0.1332
     22 N          16.7079   41.9404    8.2259 N.ar    1  UNL1       -0.2258
     23 N          16.4747   44.3719    7.0074 N.ar    1  UNL1       -0.2378
@<TRIPOS>BOND
     1    13    14    1
     2    14    15    1
     3    14    12    1
     4     7    12    1
     5     7     8    1
     6     8     9    1
     7     9    10    1
     8    10    11    1
     9    10     1    1
    10    11    12    1
    11     2     5   ar
    12     2    16    1
    13     3     6   ar
    14     4     1   ar
    15    19    22   ar
    16    20    23   ar
    17    21    18   ar
    18    16    18    1
    19     1     5   ar
    20     2     6   ar
    21     3     4   ar
    22    18    22   ar
    23    19    20   ar
    24    21    23   ar
    25    16    17    1
@<TRIPOS>MOLECULE
Molport-020-295-054 MCULE-1758090520 PubChem-110267155
 23 25 0 0 0
SMALL
GASTEIGER

@<TRIPOS>ATOM
      1 C          10.9521   41.5865    9.0586 C.ar    1  UNL1        0.0644
      2 C          13.2413   41.2579    8.5436 C.ar    1  UNL1        0.2215
      3 C          12.3578   40.3104   10.5250 C.ar    1  UNL1        0.1031
      4 C          11.1026   40.8376   10.2311 C.ar    1  UNL1        0.0355
      5 N          12.0222   41.7790    8.2432 N.ar    1  UNL1       -0.2179
      6 N          13.3996   40.5281    9.6814 N.ar    1  UNL1       -0.2120
      7 C           6.8708   42.8047    9.2320 C.3     1  UNL1        0.0721
      8 C           7.9251   43.9148    9.1878 C.3     1  UNL1        0.0178
      9 C           9.2794   43.3527    9.5888 C.3     1  UNL1        0.0087
     10 C           9.6320   42.1797    8.6825 C.3     1  UNL1        0.0564
     11 C           8.5205   41.1228    8.7279 C.3     1  UNL1        0.0780
     12 N           7.2076   41.6744    8.3467 N.3     1  UNL1       -0.2736
     13 C           8.5505   41.8784    6.2845 C.3     1  UNL1        0.0173
     14 C           7.1852   42.0764    6.9274 C.3     1  UNL1        0.0576
     15 C           6.8210   43.5473    6.7831 C.3     1  UNL1        0.0173
     16 N          14.3385   41.4890    7.6518 N.pl3   1  UNL1       -0.2667
     17 H          14.9237   40.7213    7.4584 H       1  UNL1        0.1565
     18 C          14.6664   42.7294    7.0144 C.ar    1  UNL1        0.1537
     19 C          16.1641   44.5286    6.6322 C.ar    1  UNL1        0.1210
     20 C          15.2424   45.1118    5.7616 C.ar    1  UNL1        0.1196
     21 C          13.7464   43.3157    6.1427 C.ar    1  UNL1        0.1332
     22 N          15.8565   43.3519    7.2387 N.ar    1  UNL1       -0.2258
     23 N          14.0538   44.4926    5.5358 N.ar    1  UNL1       -0.2378
@<TRIPOS>BOND
     1    13    14    1
     2    14    15    1
     3    14    12    1
     4     7    12    1
     5     7     8    1
     6     8     9    1
     7     9    10    1
     8    10    11    1
     9    10     1    1
    10    11    12    1
    11     2     5   ar
    12     2    16    1
    13     3     6   ar
    14     4     1   ar
    15    19    22   ar
    16    20    23   ar
    17    21    18   ar
    18    16    18    1
    19     1     5   ar
    20     2     6   ar
    21     3     4   ar
    22    18    22   ar
    23    19    20   ar
    24    21    23   ar
    25    16    17    1
@<TRIPOS>MOLECULE
Molport-020-295-054 MCULE-1758090520 PubChem-110267155
 23 25 0 0 0
SMALL
GASTEIGER

@<TRIPOS>ATOM
      1 C           9.1984   41.4318    6.5489 C.ar    1  UNL1        0.0644
      2 C          11.5499   41.1435    6.5685 C.ar    1  UNL1        0.2215
      3 C          10.2686   40.0535    4.9028 C.ar    1  UNL1        0.1031
      4 C           9.1001   40.6000    5.4279 C.ar    1  UNL1        0.0355
      5 N          10.4181   41.6843    7.0923 N.ar    1  UNL1       -0.2179
      6 N          11.4665   40.3327    5.4785 N.ar    1  UNL1       -0.2120
      7 C           6.5658   44.2903    8.3011 C.3     1  UNL1        0.0721
      8 C           6.1825   43.7483    6.9207 C.3     1  UNL1        0.0178
      9 C           7.4013   43.1298    6.2556 C.3     1  UNL1        0.0087
     10 C           7.9837   42.0523    7.1618 C.3     1  UNL1        0.0564
     11 C           8.3026   42.6383    8.5436 C.3     1  UNL1        0.0780
     12 N           7.1197   43.2446    9.1811 N.3     1  UNL1       -0.2736
     13 C           4.7406   42.8649    9.7226 C.3     1  UNL1        0.0173
     14 C           6.1055   42.2254    9.5113 C.3     1  UNL1        0.0576
     15 C           6.4690   41.4899   10.7935 C.3     1  UNL1        0.0173
     16 N          12.8123   41.4398    7.1776 N.pl3   1  UNL1       -0.2667
     17 H          13.0836   40.8744    7.9365 H       1  UNL1        0.1565
     18 C          13.7180   42.4796    6.7890 C.ar    1  UNL1        0.1537
     19 C          15.8577   43.4999    6.8723 C.ar    1  UNL1        0.1210
     20 C          15.4141   44.5023    6.0086 C.ar    1  UNL1        0.1196
     21 C          13.2774   43.4842    5.9249 C.ar    1  UNL1        0.1332
     22 N          15.0013   42.5118    7.2431 N.ar    1  UNL1       -0.2258
     23 N          14.1337   44.4725    5.5537 N.ar    1  UNL1       -0.2378
@<TRIPOS>BOND
     1    13    14    1
     2    14    15    1
     3    14    12    1
     4     7    12    1
     5     7     8    1
     6     8     9    1
     7     9    10    1
     8    10    11    1
     9    10     1    1
    10    11    12    1
    11     2     5   ar
    12     2    16    1
    13     3     6   ar
    14     4     1   ar
    15    19    22   ar
    16    20    23   ar
    17    21    18   ar
    18    16    18    1
    19     1     5   ar
    20     2     6   ar
    21     3     4   ar
    22    18    22   ar
    23    19    20   ar
    24    21    23   ar
    25    16    17    1
@<TRIPOS>MOLECULE
Molport-020-295-054 MCULE-1758090520 PubChem-110267155
 23 25 0 0 0
SMALL
GASTEIGER

@<TRIPOS>ATOM
      1 C          11.5485   40.5303    7.8037 C.ar    1  UNL1        0.0644
      2 C          13.6549   41.5445    7.4189 C.ar    1  UNL1        0.2215
      3 C          13.4339   39.9785    9.1804 C.ar    1  UNL1        0.1031
      4 C          12.0877   39.8019    8.8700 C.ar    1  UNL1        0.0355
      5 N          12.3425   41.3828    7.1038 N.ar    1  UNL1       -0.2179
      6 N          14.1901   40.8415    8.4541 N.ar    1  UNL1       -0.2120
      7 C           8.0326   39.5189    5.6158 C.3     1  UNL1        0.0721
      8 C           8.2382   38.8176    6.9618 C.3     1  UNL1        0.0178
      9 C           9.6967   38.9217    7.3773 C.3     1  UNL1        0.0087
     10 C          10.1113   40.3874    7.4162 C.3     1  UNL1        0.0564
     11 C           9.8381   41.0510    6.0600 C.3     1  UNL1        0.0780
     12 N           8.4243   40.9401    5.6572 N.3     1  UNL1       -0.2736
     13 C           8.3609   42.4392    7.6184 C.3     1  UNL1        0.0173
     14 C           7.5472   41.7148    6.5555 C.3     1  UNL1        0.0576
     15 C           6.5629   40.8039    7.2754 C.3     1  UNL1        0.0173
     16 N          14.4505   42.4554    6.6509 N.pl3   1  UNL1       -0.2667
     17 H          14.0861   42.7404    5.7818 H       1  UNL1        0.1565
     18 C          15.7250   42.9917    7.0256 C.ar    1  UNL1        0.1537
     19 C          17.6285   43.0106    8.4406 C.ar    1  UNL1        0.1210
     20 C          18.1701   44.0616    7.6992 C.ar    1  UNL1        0.1196
     21 C          16.2698   44.0434    6.2858 C.ar    1  UNL1        0.1332
     22 N          16.4196   42.4993    8.0882 N.ar    1  UNL1       -0.2258
     23 N          17.4790   44.5550    6.6380 N.ar    1  UNL1       -0.2378
@<TRIPOS>BOND
     1    13    14    1
     2    14    15    1
     3    14    12    1
     4     7    12    1
     5     7     8    1
     6     8     9    1
     7     9    10    1
     8    10    11    1
     9    10     1    1
    10    11    12    1
    11     2     5   ar
    12     2    16    1
    13     3     6   ar
    14     4     1   ar
    15    19    22   ar
    16    20    23   ar
    17    21    18   ar
    18    16    18    1
    19     1     5   ar
    20     2     6   ar
    21     3     4   ar
    22    18    22   ar
    23    19    20   ar
    24    21    23   ar
    25    16    17    1
@<TRIPOS>MOLECULE
Molport-020-295-054 MCULE-1758090520 PubChem-110267155
 23 25 0 0 0
SMALL
GASTEIGER

@<TRIPOS>ATOM
      1 C           9.9314   41.1789    8.1626 C.ar    1  UNL1        0.0644
      2 C          11.7884   41.4694    6.7202 C.ar    1  UNL1        0.2215
      3 C          11.5571   39.4336    7.9061 C.ar    1  UNL1        0.1031
      4 C          10.3819   39.8960    8.4935 C.ar    1  UNL1        0.0355
      5 N          10.6430   41.9346    7.2854 N.ar    1  UNL1       -0.2179
      6 N          12.2364   40.2234    7.0347 N.ar    1  UNL1       -0.2120
      7 C           6.0790   41.4310    9.9700 C.3     1  UNL1        0.0721
      8 C           7.2661   41.9423   10.7919 C.3     1  UNL1        0.0178
      9 C           8.5604   41.3756   10.2315 C.3     1  UNL1        0.0087
     10 C           8.6769   41.7362    8.7558 C.3     1  UNL1        0.0564
     11 C           7.4408   41.2442    7.9914 C.3     1  UNL1        0.0780
     12 N           6.1874   41.7895    8.5436 N.3     1  UNL1       -0.2736
     13 C           4.7167   43.7669    8.7005 C.3     1  UNL1        0.0173
     14 C           6.1037   43.2492    8.3470 C.3     1  UNL1        0.0576
     15 C           6.3739   43.6203    6.8957 C.3     1  UNL1        0.0173
     16 N          12.5030   42.3045    5.8012 N.pl3   1  UNL1       -0.2667
     17 H          12.1484   42.3622    4.8846 H       1  UNL1        0.1565
     18 C          13.6838   43.0637    6.0873 C.ar    1  UNL1        0.1537
     19 C          14.9991   45.0211    5.8330 C.ar    1  UNL1        0.1210
     20 C          15.9725   44.4768    6.6720 C.ar    1  UNL1        0.1196
     21 C          14.6597   42.5221    6.9265 C.ar    1  UNL1        0.1332
     22 N          13.8777   44.3038    5.5593 N.ar    1  UNL1       -0.2258
     23 N          15.7815   43.2393    7.2005 N.ar    1  UNL1       -0.2378
@<TRIPOS>BOND
     1    13    14    1
     2    14    15    1
     3    14    12    1
     4     7    12    1
     5     7     8    1
     6     8     9    1
     7     9    10    1
     8    10    11    1
     9    10     1    1
    10    11    12    1
    11     2     5   ar
    12     2    16    1
    13     3     6   ar
    14     4     1   ar
    15    19    22   ar
    16    20    23   ar
    17    21    18   ar
    18    16    18    1
    19     1     5   ar
    20     2     6   ar
    21     3     4   ar
    22    18    22   ar
    23    19    20   ar
    24    21    23   ar
    25    16    17    1
@<TRIPOS>MOLECULE
Molport-020-295-054 MCULE-1758090520 PubChem-110267155
 23 25 0 0 0
SMALL
GASTEIGER

@<TRIPOS>ATOM
      1 C          11.4523   41.0083    9.4326 C.ar    1  UNL1        0.0644
      2 C          13.7175   40.9990    8.7383 C.ar    1  UNL1        0.2215
      3 C          13.1413   40.0007   10.8061 C.ar    1  UNL1        0.1031
      4 C          11.8029   40.3295   10.6050 C.ar    1  UNL1        0.0355
      5 N          12.4151   41.3267    8.5279 N.ar    1  UNL1       -0.2179
      6 N          14.0703   40.3390    9.8750 N.ar    1  UNL1       -0.2120
      7 C           8.0041   43.3169    8.4568 C.3     1  UNL1        0.0721
      8 C           8.4099   42.2223    7.4652 C.3     1  UNL1        0.0178
      9 C           9.8576   41.8247    7.7037 C.3     1  UNL1        0.0087
     10 C          10.0336   41.3901    9.1534 C.3     1  UNL1        0.0564
     11 C           9.5667   42.5035   10.1003 C.3     1  UNL1        0.0780
     12 N           8.1650   42.8917    9.8597 N.3     1  UNL1       -0.2736
     13 C           5.7995   42.1837    9.8879 C.3     1  UNL1        0.0173
     14 C           7.2378   41.7960   10.2004 C.3     1  UNL1        0.0576
     15 C           7.3093   41.4627   11.6839 C.3     1  UNL1        0.0173
     16 N          14.6955   41.3569    7.7545 N.pl3   1  UNL1       -0.2667
     17 H          15.3619   40.6712    7.5198 H       1  UNL1        0.1565
     18 C          14.7974   42.6162    7.0791 C.ar    1  UNL1        0.1537
     19 C          15.9861   44.6066    6.5776 C.ar    1  UNL1        0.1210
     20 C          14.9383   45.0263    5.7568 C.ar    1  UNL1        0.1196
     21 C          13.7508   43.0392    6.2570 C.ar    1  UNL1        0.1332
     22 N          15.8929   43.4125    7.2199 N.ar    1  UNL1       -0.2258
     23 N          13.8437   44.2335    5.6144 N.ar    1  UNL1       -0.2378
@<TRIPOS>BOND
     1    13    14    1
     2    14    15    1
     3    14    12    1
     4     7    12    1
     5     7     8    1
     6     8     9    1
     7     9    10    1
     8    10    11    1
     9    10     1    1
    10    11    12    1
    11     2     5   ar
    12     2    16    1
    13     3     6   ar
    14     4     1   ar
    15    19    22   ar
    16    20    23   ar
    17    21    18   ar
    18    16    18    1
    19     1     5   ar
    20     2     6   ar
    21     3     4   ar
    22    18    22   ar
    23    19    20   ar
    24    21    23   ar
    25    16    17    1
@<TRIPOS>MOLECULE
Molport-020-295-054 MCULE-1758090520 PubChem-110267155
 23 25 0 0 0
SMALL
GASTEIGER

@<TRIPOS>ATOM
      1 C           9.4689   41.3914   10.0450 C.ar    1  UNL1        0.0644
      2 C          11.4677   41.0158    8.8298 C.ar    1  UNL1        0.2215
      3 C          11.4312   40.5711   11.1547 C.ar    1  UNL1        0.1031
      4 C          10.0976   40.9675   11.2211 C.ar    1  UNL1        0.0355
      5 N          10.1664   41.4057    8.8787 N.ar    1  UNL1       -0.2179
      6 N          12.0897   40.6019    9.9673 N.ar    1  UNL1       -0.2120
      7 C           5.2090   41.2860    9.9275 C.3     1  UNL1        0.0721
      8 C           5.8558   41.7605   11.2323 C.3     1  UNL1        0.0178
      9 C           7.3075   41.3120   11.2782 C.3     1  UNL1        0.0087
     10 C           8.0389   41.8288   10.0455 C.3     1  UNL1        0.0564
     11 C           7.3211   41.3654    8.7710 C.3     1  UNL1        0.0780
     12 N           5.9113   41.7952    8.7348 N.3     1  UNL1       -0.2736
     13 C           4.3437   43.7026    8.6932 C.3     1  UNL1        0.0173
     14 C           5.7993   43.2624    8.6289 C.3     1  UNL1        0.0576
     15 C           6.3689   43.7587    7.3075 C.3     1  UNL1        0.0173
     16 N          12.1601   41.0490    7.5759 N.pl3   1  UNL1       -0.2667
     17 H          11.8941   40.3812    6.9032 H       1  UNL1        0.1565
     18 C          13.2021   41.9602    7.2065 C.ar    1  UNL1        0.1537
     19 C          15.4722   42.6450    7.2689 C.ar    1  UNL1        0.1210
     20 C          15.1635   43.7436    6.4655 C.ar    1  UNL1        0.1196
     21 C          12.8967   43.0605    6.4027 C.ar    1  UNL1        0.1332
     22 N          14.4862   41.7785    7.6214 N.ar    1  UNL1       -0.2258
     23 N          13.8826   43.9273    6.0499 N.ar    1  UNL1       -0.2378
@<TRIPOS>BOND
     1    13    14    1
     2    14    15    1
     3    14    12    1
     4     7    12    1
     5     7     8    1
     6     8     9    1
     7     9    10    1
     8    10    11    1
     9    10     1    1
    10    11    12    1
    11     2     5   ar
    12     2    16    1
    13     3     6   ar
    14     4     1   ar
    15    19    22   ar
    16    20    23   ar
    17    21    18   ar
    18    16    18    1
    19     1     5   ar
    20     2     6   ar
    21     3     4   ar
    22    18    22   ar
    23    19    20   ar
    24    21    23   ar
    25    16    17    1
@<TRIPOS>MOLECULE
Molport-020-295-054 MCULE-1758090520 PubChem-110267155
 23 25 0 0 0
SMALL
GASTEIGER

@<TRIPOS>ATOM
      1 C          13.7776   40.8528    8.2058 C.ar    1  UNL1        0.0644
      2 C          12.4906   41.9657    6.5571 C.ar    1  UNL1        0.2215
      3 C          14.7304   42.6403    6.9207 C.ar    1  UNL1        0.1031
      4 C          14.8728   41.6731    7.9127 C.ar    1  UNL1        0.0355
      5 N          12.6142   41.0170    7.5228 N.ar    1  UNL1       -0.2179
      6 N          13.5489   42.7695    6.2637 N.ar    1  UNL1       -0.2120
      7 C          14.8165   38.7853   11.7860 C.3     1  UNL1        0.0721
      8 C          13.3436   39.1650   11.6063 C.3     1  UNL1        0.0178
      9 C          13.2198   40.2593   10.5585 C.3     1  UNL1        0.0087
     10 C          13.8628   39.7937    9.2581 C.3     1  UNL1        0.0564
     11 C          15.3194   39.3801    9.5061 C.3     1  UNL1        0.0780
     12 N          15.4353   38.3248   10.5290 N.3     1  UNL1       -0.2736
     13 C          14.2422   37.2162    8.6729 C.3     1  UNL1        0.0173
     14 C          14.8359   37.0589   10.0655 C.3     1  UNL1        0.0576
     15 C          13.7137   36.6152   10.9933 C.3     1  UNL1        0.0173
     16 N          11.2431   42.0998    5.8654 N.pl3   1  UNL1       -0.2667
     17 H          10.8640   43.0063    5.8037 H       1  UNL1        0.1565
     18 C          10.4941   41.0421    5.2549 C.ar    1  UNL1        0.1537
     19 C          10.3179   39.2602    3.6993 C.ar    1  UNL1        0.1210
     20 C           9.0077   39.0236    4.1177 C.ar    1  UNL1        0.1196
     21 C           9.1828   40.8026    5.6711 C.ar    1  UNL1        0.1332
     22 N          11.0315   40.2627    4.2762 N.ar    1  UNL1       -0.2258
     23 N           8.4688   39.7999    5.0944 N.ar    1  UNL1       -0.2378
@<TRIPOS>BOND
     1    13    14    1
     2    14    15    1
     3    14    12    1
     4     7    12    1
     5     7     8    1
     6     8     9    1
     7     9    10    1
     8    10    11    1
     9    10     1    1
    10    11    12    1
    11     2     5   ar
    12     2    16    1
    13     3     6   ar
    14     4     1   ar
    15    19    22   ar
    16    20    23   ar
    17    21    18   ar
    18    16    18    1
    19     1     5   ar
    20     2     6   ar
    21     3     4   ar
    22    18    22   ar
    23    19    20   ar
    24    21    23   ar
    25    16    17    1
@<TRIPOS>MOLECULE
Molport-020-295-054 MCULE-1758090520 PubChem-110267155
 23 25 0 0 0
SMALL
GASTEIGER

@<TRIPOS>ATOM
      1 C          13.7904   41.1926    7.8152 C.ar    1  UNL1        0.0644
      2 C          12.3310   42.1772    6.2297 C.ar    1  UNL1        0.2215
      3 C          14.4855   43.1057    6.5457 C.ar    1  UNL1        0.1031
      4 C          14.7715   42.1428    7.5106 C.ar    1  UNL1        0.0355
      5 N          12.5953   41.2310    7.1692 N.ar    1  UNL1       -0.2179
      6 N          13.2774   43.1066    5.9254 N.ar    1  UNL1       -0.2120
      7 C          15.3895   37.7703    9.7906 C.3     1  UNL1        0.0721
      8 C          15.6503   39.1322   10.4412 C.3     1  UNL1        0.0178
      9 C          15.4370   40.2379    9.4202 C.3     1  UNL1        0.0087
     10 C          14.0324   40.1305    8.8398 C.3     1  UNL1        0.0564
     11 C          13.8100   38.7329    8.2469 C.3     1  UNL1        0.0780
     12 N          14.0263   37.6634    9.2383 N.3     1  UNL1       -0.2736
     13 C          13.2462   36.6037   11.3278 C.3     1  UNL1        0.0173
     14 C          13.0079   37.7054   10.3049 C.3     1  UNL1        0.0576
     15 C          11.6114   37.5043    9.7336 C.3     1  UNL1        0.0173
     16 N          11.0557   42.1758    5.5767 N.pl3   1  UNL1       -0.2667
     17 H          10.9968   42.6486    4.7151 H       1  UNL1        0.1565
     18 C           9.8581   41.5529    6.0564 C.ar    1  UNL1        0.1537
     19 C           8.1046   39.9743    5.8125 C.ar    1  UNL1        0.1210
     20 C           7.5589   40.3919    7.0272 C.ar    1  UNL1        0.1196
     21 C           9.3094   41.9683    7.2715 C.ar    1  UNL1        0.1332
     22 N           9.2407   40.5630    5.3542 N.ar    1  UNL1       -0.2258
     23 N           8.1732   41.3796    7.7301 N.ar    1  UNL1       -0.2378
@<TRIPOS>BOND
     1    13    14    1
     2    14    15    1
     3    14    12    1
     4     7    12    1
     5     7     8    1
     6     8     9    1
     7     9    10    1
     8    10    11    1
     9    10     1    1
    10    11    12    1
    11     2     5   ar
    12     2    16    1
    13     3     6   ar
    14     4     1   ar
    15    19    22   ar
    16    20    23   ar
    17    21    18   ar
    18    16    18    1
    19     1     5   ar
    20     2     6   ar
    21     3     4   ar
    22    18    22   ar
    23    19    20   ar
    24    21    23   ar
    25    16    17    1
