@<TRIPOS>MOLECULE
MolPort-003-009-719 1509443 BKPLWSSOYAGQPR-UHFFFAOYSA-N CSSS00104891008 LN01379873 MCULE-7706064655 PubChem-160276703 PubChem-3279893 ZINC000001509443 ZINC01509443
 24 26 0 0 0
SMALL
GASTEIGER

@<TRIPOS>ATOM
      1 C          13.2724   42.5736    7.2046 C.ar    1  UNL1        0.1656
      2 C          11.4556   41.3626    6.6530 C.ar    1  UNL1        0.0923
      3 C          10.9560   42.0282    7.7883 C.ar    1  UNL1        0.0886
      4 N          12.7446   41.6785    6.3430 N.ar    1  UNL1       -0.2238
      5 S          12.1766   43.0274    8.3869 S.2     1  UNL1       -0.0482
      6 C          10.7217   40.3560    5.8544 C.ar    1  UNL1        0.0183
      7 C           9.9769   39.3633    6.5086 C.ar    1  UNL1        0.0015
      8 C           9.2450   38.4253    5.7746 C.ar    1  UNL1        0.0000
      9 C           9.2428   38.4785    4.3785 C.ar    1  UNL1        0.0000
     10 C           9.9682   39.4725    3.7171 C.ar    1  UNL1        0.0000
     11 C          10.6992   40.4099    4.4522 C.ar    1  UNL1        0.0015
     12 C          16.4304   44.6185    6.3049 C.3     1  UNL1        0.0950
     13 C          15.0081   44.1889    6.3019 C.2     1  UNL1        0.2280
     14 O          14.1772   44.8029    5.5817 O.2     1  UNL1       -0.2747
     15 N          14.6060   43.0841    7.1175 N.am    1  UNL1       -0.2641
     16 H          15.2991   42.6421    7.6593 H       1  UNL1        0.1567
     17 C           9.5664   42.0325    8.2920 C.2     1  UNL1        0.2030
     18 O           8.6313   42.3147    7.4943 O.2     1  UNL1       -0.2860
     19 C           9.2463   41.7489    9.7086 C.ar    1  UNL1        0.0395
     20 C           7.9517   41.9478   10.2140 C.ar    1  UNL1        0.0032
     21 C           7.6671   41.6937   11.5587 C.ar    1  UNL1        0.0001
     22 C           8.6765   41.2430   12.4130 C.ar    1  UNL1        0.0000
     23 C           9.9703   41.0490   11.9231 C.ar    1  UNL1        0.0001
     24 C          10.2541   41.3033   10.5781 C.ar    1  UNL1        0.0032
@<TRIPOS>BOND
     1    12    13    1
     2    13    15   am
     3     1     5   ar
     4     2     4   ar
     5     2     6    1
     6     3     5   ar
     7     3    17    1
     8    17    19    1
     9    20    21   ar
    10    22    23   ar
    11    24    19   ar
    12     7     8   ar
    13     9    10   ar
    14    11     6   ar
    15    15     1    1
    16    13    14    2
    17     1     4   ar
    18     2     3   ar
    19    17    18    2
    20    19    20   ar
    21    21    22   ar
    22    23    24   ar
    23     6     7   ar
    24     8     9   ar
    25    10    11   ar
    26    15    16    1
@<TRIPOS>MOLECULE
MolPort-003-009-719 1509443 BKPLWSSOYAGQPR-UHFFFAOYSA-N CSSS00104891008 LN01379873 MCULE-7706064655 PubChem-160276703 PubChem-3279893 ZINC000001509443 ZINC01509443
 24 26 0 0 0
SMALL
GASTEIGER

@<TRIPOS>ATOM
      1 C          13.3070   42.3330    7.2595 C.ar    1  UNL1        0.1656
      2 C          11.5490   41.0400    6.7036 C.ar    1  UNL1        0.0923
      3 C          11.2139   41.3263    8.0404 C.ar    1  UNL1        0.0886
      4 N          12.7152   41.6084    6.2863 N.ar    1  UNL1       -0.2238
      5 S          12.4205   42.3170    8.6803 S.2     1  UNL1       -0.0482
      6 C          10.7795   40.1629    5.7935 C.ar    1  UNL1        0.0183
      7 C           9.9831   39.1394    6.3287 C.ar    1  UNL1        0.0015
      8 C           9.2180   38.3231    5.4906 C.ar    1  UNL1        0.0000
      9 C           9.2341   38.5304    4.1091 C.ar    1  UNL1        0.0000
     10 C          10.0112   39.5568    3.5666 C.ar    1  UNL1        0.0000
     11 C          10.7754   40.3724    4.4058 C.ar    1  UNL1        0.0015
     12 C          16.0762   44.7937    6.1459 C.3     1  UNL1        0.0950
     13 C          14.7400   44.1478    6.2157 C.2     1  UNL1        0.2280
     14 O          13.8027   44.5843    5.4966 O.2     1  UNL1       -0.2747
     15 N          14.5403   43.0399    7.0990 N.am    1  UNL1       -0.2641
     16 H          15.3093   42.7418    7.6366 H       1  UNL1        0.1567
     17 C           9.9548   41.0024    8.7435 C.2     1  UNL1        0.2030
     18 O           9.9651   40.1007    9.6250 O.2     1  UNL1       -0.2860
     19 C           8.6803   41.6810    8.4194 C.ar    1  UNL1        0.0395
     20 C           8.6003   43.0810    8.3516 C.ar    1  UNL1        0.0032
     21 C           7.3860   43.7101    8.0627 C.ar    1  UNL1        0.0001
     22 C           6.2378   42.9448    7.8440 C.ar    1  UNL1        0.0000
     23 C           6.3037   41.5512    7.9165 C.ar    1  UNL1        0.0001
     24 C           7.5186   40.9229    8.2054 C.ar    1  UNL1        0.0032
@<TRIPOS>BOND
     1    12    13    1
     2    13    15   am
     3     1     5   ar
     4     2     4   ar
     5     2     6    1
     6     3     5   ar
     7     3    17    1
     8    17    19    1
     9    20    21   ar
    10    22    23   ar
    11    24    19   ar
    12     7     8   ar
    13     9    10   ar
    14    11     6   ar
    15    15     1    1
    16    13    14    2
    17     1     4   ar
    18     2     3   ar
    19    17    18    2
    20    19    20   ar
    21    21    22   ar
    22    23    24   ar
    23     6     7   ar
    24     8     9   ar
    25    10    11   ar
    26    15    16    1
@<TRIPOS>MOLECULE
MolPort-003-009-719 1509443 BKPLWSSOYAGQPR-UHFFFAOYSA-N CSSS00104891008 LN01379873 MCULE-7706064655 PubChem-160276703 PubChem-3279893 ZINC000001509443 ZINC01509443
 24 26 0 0 0
SMALL
GASTEIGER

@<TRIPOS>ATOM
      1 C          13.9433   42.7399    7.0916 C.ar    1  UNL1        0.1656
      2 C          12.0634   42.1427    8.1783 C.ar    1  UNL1        0.0923
      3 C          11.5924   42.0917    6.8529 C.ar    1  UNL1        0.0886
      4 N          13.3725   42.5041    8.2920 N.ar    1  UNL1       -0.2238
      5 S          12.8676   42.5078    5.8293 S.2     1  UNL1       -0.0482
      6 C          11.2507   41.8937    9.3895 C.ar    1  UNL1        0.0183
      7 C          11.3822   40.6752   10.0722 C.ar    1  UNL1        0.0015
      8 C          10.6528   40.4331   11.2399 C.ar    1  UNL1        0.0000
      9 C           9.7925   41.4128   11.7418 C.ar    1  UNL1        0.0000
     10 C           9.6658   42.6360   11.0788 C.ar    1  UNL1        0.0000
     11 C          10.3960   42.8768    9.9117 C.ar    1  UNL1        0.0015
     12 C          17.7854   43.1002    7.3604 C.3     1  UNL1        0.0950
     13 C          16.4150   42.6028    7.6470 C.2     1  UNL1        0.2280
     14 O          16.2482   41.7221    8.5317 O.2     1  UNL1       -0.2747
     15 N          15.3072   43.1330    6.9128 N.am    1  UNL1       -0.2641
     16 H          15.4979   43.8197    6.2336 H       1  UNL1        0.1567
     17 C          10.2863   41.5874    6.3790 C.2     1  UNL1        0.2030
     18 O           9.2383   42.2029    6.7156 O.2     1  UNL1       -0.2860
     19 C          10.1722   40.3659    5.5515 C.ar    1  UNL1        0.0395
     20 C          10.7761   40.2872    4.2866 C.ar    1  UNL1        0.0032
     21 C          10.6451   39.1343    3.5072 C.ar    1  UNL1        0.0001
     22 C           9.9037   38.0501    3.9834 C.ar    1  UNL1        0.0000
     23 C           9.2918   38.1200    5.2373 C.ar    1  UNL1        0.0001
     24 C           9.4234   39.2734    6.0161 C.ar    1  UNL1        0.0032
@<TRIPOS>BOND
     1    12    13    1
     2    13    15   am
     3     1     5   ar
     4     2     4   ar
     5     2     6    1
     6     3     5   ar
     7     3    17    1
     8    17    19    1
     9    20    21   ar
    10    22    23   ar
    11    24    19   ar
    12     7     8   ar
    13     9    10   ar
    14    11     6   ar
    15    15     1    1
    16    13    14    2
    17     1     4   ar
    18     2     3   ar
    19    17    18    2
    20    19    20   ar
    21    21    22   ar
    22    23    24   ar
    23     6     7   ar
    24     8     9   ar
    25    10    11   ar
    26    15    16    1
@<TRIPOS>MOLECULE
MolPort-003-009-719 1509443 BKPLWSSOYAGQPR-UHFFFAOYSA-N CSSS00104891008 LN01379873 MCULE-7706064655 PubChem-160276703 PubChem-3279893 ZINC000001509443 ZINC01509443
 24 26 0 0 0
SMALL
GASTEIGER

@<TRIPOS>ATOM
      1 C          11.0097   41.2719    6.8698 C.ar    1  UNL1        0.1656
      2 C          13.1175   42.0304    7.1014 C.ar    1  UNL1        0.0923
      3 C          13.1036   41.0648    8.1255 C.ar    1  UNL1        0.0886
      4 N          11.9454   42.1313    6.4134 N.ar    1  UNL1       -0.2238
      5 S          11.5806   40.3390    8.1380 S.2     1  UNL1       -0.0482
      6 C          14.2491   42.9290    6.7825 C.ar    1  UNL1        0.0183
      7 C          15.5441   42.5844    7.1978 C.ar    1  UNL1        0.0015
      8 C          16.6335   43.3988    6.8750 C.ar    1  UNL1        0.0000
      9 C          16.4387   44.5606    6.1239 C.ar    1  UNL1        0.0000
     10 C          15.1557   44.9049    5.6916 C.ar    1  UNL1        0.0000
     11 C          14.0674   44.0896    6.0147 C.ar    1  UNL1        0.0015
     12 C           7.2156   41.6183    6.1999 C.3     1  UNL1        0.0950
     13 C           8.5327   41.8203    6.8572 C.2     1  UNL1        0.2280
     14 O           8.6126   42.5686    7.8671 O.2     1  UNL1       -0.2747
     15 N           9.6888   41.1608    6.3319 N.am    1  UNL1       -0.2641
     16 H           9.5660   40.5877    5.5409 H       1  UNL1        0.1567
     17 C          14.2450   40.5994    8.9413 C.2     1  UNL1        0.2030
     18 O          15.3050   41.2826    8.9499 O.2     1  UNL1       -0.2860
     19 C          14.1903   39.3414    9.7185 C.ar    1  UNL1        0.0395
     20 C          14.1085   39.3571   11.1200 C.ar    1  UNL1        0.0032
     21 C          14.0762   38.1615   11.8433 C.ar    1  UNL1        0.0001
     22 C          14.1309   36.9376   11.1719 C.ar    1  UNL1        0.0000
     23 C          14.2203   36.9096    9.7780 C.ar    1  UNL1        0.0001
     24 C          14.2524   38.1058    9.0554 C.ar    1  UNL1        0.0032
@<TRIPOS>BOND
     1    12    13    1
     2    13    15   am
     3     1     5   ar
     4     2     4   ar
     5     2     6    1
     6     3     5   ar
     7     3    17    1
     8    17    19    1
     9    20    21   ar
    10    22    23   ar
    11    24    19   ar
    12     7     8   ar
    13     9    10   ar
    14    11     6   ar
    15    15     1    1
    16    13    14    2
    17     1     4   ar
    18     2     3   ar
    19    17    18    2
    20    19    20   ar
    21    21    22   ar
    22    23    24   ar
    23     6     7   ar
    24     8     9   ar
    25    10    11   ar
    26    15    16    1
@<TRIPOS>MOLECULE
MolPort-003-009-719 1509443 BKPLWSSOYAGQPR-UHFFFAOYSA-N CSSS00104891008 LN01379873 MCULE-7706064655 PubChem-160276703 PubChem-3279893 ZINC000001509443 ZINC01509443
 24 26 0 0 0
SMALL
GASTEIGER

@<TRIPOS>ATOM
      1 C          10.6453   40.6486    5.5993 C.ar    1  UNL1        0.1656
      2 C          12.3234   41.8298    6.5268 C.ar    1  UNL1        0.0923
      3 C          11.6068   41.4905    7.6899 C.ar    1  UNL1        0.0886
      4 N          11.7748   41.3528    5.3741 N.ar    1  UNL1       -0.2238
      5 S          10.2693   40.5709    7.2293 S.2     1  UNL1       -0.0482
      6 C          13.5390   42.6724    6.4813 C.ar    1  UNL1        0.0183
      7 C          14.7036   42.2422    7.1346 C.ar    1  UNL1        0.0015
      8 C          15.8745   43.0033    7.0732 C.ar    1  UNL1        0.0000
      9 C          15.8944   44.1972    6.3479 C.ar    1  UNL1        0.0000
     10 C          14.7449   44.6271    5.6804 C.ar    1  UNL1        0.0000
     11 C          13.5749   43.8650    5.7423 C.ar    1  UNL1        0.0015
     12 C           9.3889   38.4029    2.7110 C.3     1  UNL1        0.0950
     13 C          10.3050   38.9524    3.7436 C.2     1  UNL1        0.2280
     14 O          11.4568   38.4601    3.8748 O.2     1  UNL1       -0.2747
     15 N           9.8634   40.0323    4.5719 N.am    1  UNL1       -0.2641
     16 H           8.9532   40.3770    4.4238 H       1  UNL1        0.1567
     17 C          12.0113   41.7106    9.0944 C.2     1  UNL1        0.2030
     18 O          11.6238   42.7570    9.6820 O.2     1  UNL1       -0.2860
     19 C          12.8826   40.7573    9.8167 C.ar    1  UNL1        0.0395
     20 C          12.4330   40.0930   10.9690 C.ar    1  UNL1        0.0032
     21 C          13.2726   39.2089   11.6525 C.ar    1  UNL1        0.0001
     22 C          14.5728   38.9845   11.1932 C.ar    1  UNL1        0.0000
     23 C          15.0337   39.6459   10.0522 C.ar    1  UNL1        0.0001
     24 C          14.1933   40.5298    9.3691 C.ar    1  UNL1        0.0032
@<TRIPOS>BOND
     1    12    13    1
     2    13    15   am
     3     1     5   ar
     4     2     4   ar
     5     2     6    1
     6     3     5   ar
     7     3    17    1
     8    17    19    1
     9    20    21   ar
    10    22    23   ar
    11    24    19   ar
    12     7     8   ar
    13     9    10   ar
    14    11     6   ar
    15    15     1    1
    16    13    14    2
    17     1     4   ar
    18     2     3   ar
    19    17    18    2
    20    19    20   ar
    21    21    22   ar
    22    23    24   ar
    23     6     7   ar
    24     8     9   ar
    25    10    11   ar
    26    15    16    1
@<TRIPOS>MOLECULE
MolPort-003-009-719 1509443 BKPLWSSOYAGQPR-UHFFFAOYSA-N CSSS00104891008 LN01379873 MCULE-7706064655 PubChem-160276703 PubChem-3279893 ZINC000001509443 ZINC01509443
 24 26 0 0 0
SMALL
GASTEIGER

@<TRIPOS>ATOM
      1 C          12.6623   40.1628    8.5639 C.ar    1  UNL1        0.1656
      2 C          14.4358   41.4375    8.0152 C.ar    1  UNL1        0.0923
      3 C          14.9703   40.7615    9.1282 C.ar    1  UNL1        0.0886
      4 N          13.1521   41.0916    7.7157 N.ar    1  UNL1       -0.2238
      5 S          13.7873   39.7146    9.7206 S.2     1  UNL1       -0.0482
      6 C          15.1293   42.4822    7.2296 C.ar    1  UNL1        0.0183
      7 C          16.4918   42.7279    7.4564 C.ar    1  UNL1        0.0015
      8 C          17.1765   43.6834    6.6998 C.ar    1  UNL1        0.0000
      9 C          16.5067   44.3948    5.7013 C.ar    1  UNL1        0.0000
     10 C          15.1538   44.1469    5.4562 C.ar    1  UNL1        0.0000
     11 C          14.4705   43.1911    6.2131 C.ar    1  UNL1        0.0015
     12 C           9.2574   38.8071    7.3257 C.3     1  UNL1        0.0950
     13 C          10.6261   39.3822    7.2672 C.2     1  UNL1        0.2280
     14 O          11.1358   39.6555    6.1484 O.2     1  UNL1       -0.2747
     15 N          11.3426   39.6161    8.4835 N.am    1  UNL1       -0.2641
     16 H          10.8938   39.3835    9.3283 H       1  UNL1        0.1567
     17 C          16.3665   40.7860    9.6127 C.2     1  UNL1        0.2030
     18 O          16.9891   41.8827    9.6184 O.2     1  UNL1       -0.2860
     19 C          17.0622   39.5583   10.0582 C.ar    1  UNL1        0.0395
     20 C          16.3729   38.5370   10.7310 C.ar    1  UNL1        0.0032
     21 C          17.0458   37.3906   11.1628 C.ar    1  UNL1        0.0001
     22 C          18.4169   37.2566   10.9306 C.ar    1  UNL1        0.0000
     23 C          19.1149   38.2699   10.2690 C.ar    1  UNL1        0.0001
     24 C          18.4410   39.4161    9.8373 C.ar    1  UNL1        0.0032
@<TRIPOS>BOND
     1    12    13    1
     2    13    15   am
     3     1     5   ar
     4     2     4   ar
     5     2     6    1
     6     3     5   ar
     7     3    17    1
     8    17    19    1
     9    20    21   ar
    10    22    23   ar
    11    24    19   ar
    12     7     8   ar
    13     9    10   ar
    14    11     6   ar
    15    15     1    1
    16    13    14    2
    17     1     4   ar
    18     2     3   ar
    19    17    18    2
    20    19    20   ar
    21    21    22   ar
    22    23    24   ar
    23     6     7   ar
    24     8     9   ar
    25    10    11   ar
    26    15    16    1
@<TRIPOS>MOLECULE
MolPort-003-009-719 1509443 BKPLWSSOYAGQPR-UHFFFAOYSA-N CSSS00104891008 LN01379873 MCULE-7706064655 PubChem-160276703 PubChem-3279893 ZINC000001509443 ZINC01509443
 24 26 0 0 0
SMALL
GASTEIGER

@<TRIPOS>ATOM
      1 C          12.6453   42.2147    7.1102 C.ar    1  UNL1        0.1656
      2 C          10.5229   41.5280    7.4191 C.ar    1  UNL1        0.0923
      3 C          10.7501   42.1486    8.6619 C.ar    1  UNL1        0.0886
      4 N          11.5870   41.5750    6.5689 N.ar    1  UNL1       -0.2238
      5 S          12.3220   42.7617    8.6596 S.2     1  UNL1       -0.0482
      6 C           9.2845   40.8203    7.0253 C.ar    1  UNL1        0.0183
      7 C           8.2804   41.5155    6.3348 C.ar    1  UNL1        0.0015
      8 C           7.1187   40.8580    5.9195 C.ar    1  UNL1        0.0000
      9 C           6.9555   39.4955    6.1818 C.ar    1  UNL1        0.0000
     10 C           7.9560   38.7899    6.8546 C.ar    1  UNL1        0.0000
     11 C           9.1171   39.4483    7.2690 C.ar    1  UNL1        0.0015
     12 C          15.6068   43.6833    5.1011 C.3     1  UNL1        0.0950
     13 C          14.2753   43.6098    5.7561 C.2     1  UNL1        0.2280
     14 O          13.5015   44.6019    5.6992 O.2     1  UNL1       -0.2747
     15 N          13.8941   42.4126    6.4408 N.am    1  UNL1       -0.2641
     16 H          14.5396   41.6694    6.4521 H       1  UNL1        0.1567
     17 C           9.7650   42.4106    9.7322 C.2     1  UNL1        0.2030
     18 O          10.1283   42.2960   10.9344 O.2     1  UNL1       -0.2860
     19 C           8.3609   42.7694    9.4332 C.ar    1  UNL1        0.0395
     20 C           8.0351   44.0077    8.8574 C.ar    1  UNL1        0.0032
     21 C           6.7031   44.3418    8.5971 C.ar    1  UNL1        0.0001
     22 C           5.6826   43.4422    8.9153 C.ar    1  UNL1        0.0000
     23 C           5.9941   42.2103    9.4958 C.ar    1  UNL1        0.0001
     24 C           7.3266   41.8770    9.7557 C.ar    1  UNL1        0.0032
@<TRIPOS>BOND
     1    12    13    1
     2    13    15   am
     3     1     5   ar
     4     2     4   ar
     5     2     6    1
     6     3     5   ar
     7     3    17    1
     8    17    19    1
     9    20    21   ar
    10    22    23   ar
    11    24    19   ar
    12     7     8   ar
    13     9    10   ar
    14    11     6   ar
    15    15     1    1
    16    13    14    2
    17     1     4   ar
    18     2     3   ar
    19    17    18    2
    20    19    20   ar
    21    21    22   ar
    22    23    24   ar
    23     6     7   ar
    24     8     9   ar
    25    10    11   ar
    26    15    16    1
@<TRIPOS>MOLECULE
MolPort-003-009-719 1509443 BKPLWSSOYAGQPR-UHFFFAOYSA-N CSSS00104891008 LN01379873 MCULE-7706064655 PubChem-160276703 PubChem-3279893 ZINC000001509443 ZINC01509443
 24 26 0 0 0
SMALL
GASTEIGER

@<TRIPOS>ATOM
      1 C          10.5099   40.4141    7.5034 C.ar    1  UNL1        0.1656
      2 C          12.3259   39.8159    8.6933 C.ar    1  UNL1        0.0923
      3 C          12.9247   40.7147    7.7906 C.ar    1  UNL1        0.0886
      4 N          10.9830   39.6617    8.5194 N.ar    1  UNL1       -0.2238
      5 S          11.7193   41.3131    6.7729 S.2     1  UNL1       -0.0482
      6 C          13.0389   39.0322    9.7262 C.ar    1  UNL1        0.0183
      7 C          13.3849   39.6423   10.9412 C.ar    1  UNL1        0.0015
      8 C          14.0248   38.9111   11.9462 C.ar    1  UNL1        0.0000
      9 C          14.3149   37.5588   11.7490 C.ar    1  UNL1        0.0000
     10 C          13.9607   36.9370   10.5492 C.ar    1  UNL1        0.0000
     11 C          13.3206   37.6692    9.5454 C.ar    1  UNL1        0.0015
     12 C           6.9784   39.5051    6.2124 C.3     1  UNL1        0.0950
     13 C           8.4032   39.3302    6.5959 C.2     1  UNL1        0.2280
     14 O           8.9437   38.1994    6.4716 O.2     1  UNL1       -0.2747
     15 N           9.1378   40.4498    7.1000 N.am    1  UNL1       -0.2641
     16 H           8.6634   41.3092    7.1750 H       1  UNL1        0.1567
     17 C          14.3130   41.2216    7.8104 C.2     1  UNL1        0.2030
     18 O          15.1922   40.5626    8.4295 O.2     1  UNL1       -0.2860
     19 C          14.6916   42.4930    7.1549 C.ar    1  UNL1        0.0395
     20 C          13.8361   43.1173    6.2334 C.ar    1  UNL1        0.0032
     21 C          14.2139   44.3086    5.6073 C.ar    1  UNL1        0.0001
     22 C          15.4542   44.8847    5.8929 C.ar    1  UNL1        0.0000
     23 C          16.3171   44.2683    6.8023 C.ar    1  UNL1        0.0001
     24 C          15.9384   43.0770    7.4281 C.ar    1  UNL1        0.0032
@<TRIPOS>BOND
     1    12    13    1
     2    13    15   am
     3     1     5   ar
     4     2     4   ar
     5     2     6    1
     6     3     5   ar
     7     3    17    1
     8    17    19    1
     9    20    21   ar
    10    22    23   ar
    11    24    19   ar
    12     7     8   ar
    13     9    10   ar
    14    11     6   ar
    15    15     1    1
    16    13    14    2
    17     1     4   ar
    18     2     3   ar
    19    17    18    2
    20    19    20   ar
    21    21    22   ar
    22    23    24   ar
    23     6     7   ar
    24     8     9   ar
    25    10    11   ar
    26    15    16    1
@<TRIPOS>MOLECULE
MolPort-003-009-719 1509443 BKPLWSSOYAGQPR-UHFFFAOYSA-N CSSS00104891008 LN01379873 MCULE-7706064655 PubChem-160276703 PubChem-3279893 ZINC000001509443 ZINC01509443
 24 26 0 0 0
SMALL
GASTEIGER

@<TRIPOS>ATOM
      1 C          10.8142   39.4981    5.9271 C.ar    1  UNL1        0.1656
      2 C          12.1156   41.0162    6.9630 C.ar    1  UNL1        0.0923
      3 C          10.9377   41.1645    7.7193 C.ar    1  UNL1        0.0886
      4 N          12.0290   40.0851    5.9716 N.ar    1  UNL1       -0.2238
      5 S           9.7880   40.0898    7.1108 S.2     1  UNL1       -0.0482
      6 C          13.3543   41.8066    7.1376 C.ar    1  UNL1        0.0183
      7 C          14.3842   41.3083    7.9495 C.ar    1  UNL1        0.0015
      8 C          15.5783   42.0197    8.0985 C.ar    1  UNL1        0.0000
      9 C          15.7575   43.2319    7.4275 C.ar    1  UNL1        0.0000
     10 C          14.7448   43.7297    6.6039 C.ar    1  UNL1        0.0000
     11 C          13.5516   43.0172    6.4555 C.ar    1  UNL1        0.0015
     12 C           9.4206   37.5715    2.8758 C.3     1  UNL1        0.0950
     13 C           9.7426   38.7186    3.7636 C.2     1  UNL1        0.2280
     14 O           9.3927   39.8804    3.4260 O.2     1  UNL1       -0.2747
     15 N          10.4449   38.4840    4.9880 N.am    1  UNL1       -0.2641
     16 H          10.6925   37.5550    5.2001 H       1  UNL1        0.1567
     17 C          10.7509   41.9612    8.9501 C.2     1  UNL1        0.2030
     18 O          11.5052   41.7421    9.9367 O.2     1  UNL1       -0.2860
     19 C           9.6856   42.9815    9.0681 C.ar    1  UNL1        0.0395
     20 C           9.7565   43.9961   10.0358 C.ar    1  UNL1        0.0032
     21 C           8.7345   44.9429   10.1488 C.ar    1  UNL1        0.0001
     22 C           7.6281   44.8809    9.2980 C.ar    1  UNL1        0.0000
     23 C           7.5429   43.8711    8.3364 C.ar    1  UNL1        0.0001
     24 C           8.5656   42.9247    8.2240 C.ar    1  UNL1        0.0032
@<TRIPOS>BOND
     1    12    13    1
     2    13    15   am
     3     1     5   ar
     4     2     4   ar
     5     2     6    1
     6     3     5   ar
     7     3    17    1
     8    17    19    1
     9    20    21   ar
    10    22    23   ar
    11    24    19   ar
    12     7     8   ar
    13     9    10   ar
    14    11     6   ar
    15    15     1    1
    16    13    14    2
    17     1     4   ar
    18     2     3   ar
    19    17    18    2
    20    19    20   ar
    21    21    22   ar
    22    23    24   ar
    23     6     7   ar
    24     8     9   ar
    25    10    11   ar
    26    15    16    1
@<TRIPOS>MOLECULE
MolPort-003-009-719 1509443 BKPLWSSOYAGQPR-UHFFFAOYSA-N CSSS00104891008 LN01379873 MCULE-7706064655 PubChem-160276703 PubChem-3279893 ZINC000001509443 ZINC01509443
 24 26 0 0 0
SMALL
GASTEIGER

@<TRIPOS>ATOM
      1 C           8.7782   39.4508    6.2282 C.ar    1  UNL1        0.1656
      2 C           8.7279   40.9281    7.9272 C.ar    1  UNL1        0.0923
      3 C           7.4299   41.1164    7.4163 C.ar    1  UNL1        0.0886
      4 N           9.4629   39.9980    7.2548 N.ar    1  UNL1       -0.2238
      5 S           7.2308   40.0784    6.1011 S.2     1  UNL1       -0.0482
      6 C           9.3252   41.6782    9.0542 C.ar    1  UNL1        0.0183
      7 C           9.3035   43.0808    9.0402 C.ar    1  UNL1        0.0015
      8 C           9.8277   43.8098   10.1117 C.ar    1  UNL1        0.0000
      9 C          10.3689   43.1416   11.2128 C.ar    1  UNL1        0.0000
     10 C          10.3813   41.7450   11.2443 C.ar    1  UNL1        0.0000
     11 C           9.8566   41.0174   10.1725 C.ar    1  UNL1        0.0015
     12 C          10.0344   37.4731    3.1501 C.3     1  UNL1        0.0950
     13 C           9.4745   38.5984    3.9423 C.2     1  UNL1        0.2280
     14 O           9.1580   39.6690    3.3593 O.2     1  UNL1       -0.2747
     15 N           9.3041   38.4470    5.3549 N.am    1  UNL1       -0.2641
     16 H           9.5685   37.5877    5.7559 H       1  UNL1        0.1567
     17 C           6.3381   41.9217    8.0030 C.2     1  UNL1        0.2030
     18 O           6.0778   43.0496    7.5025 O.2     1  UNL1       -0.2860
     19 C           5.5672   41.4575    9.1777 C.ar    1  UNL1        0.0395
     20 C           4.2325   41.0407    9.0514 C.ar    1  UNL1        0.0032
     21 C           3.5098   40.6221   10.1722 C.ar    1  UNL1        0.0001
     22 C           4.1135   40.6214   11.4320 C.ar    1  UNL1        0.0000
     23 C           5.4386   41.0415   11.5711 C.ar    1  UNL1        0.0001
     24 C           6.1607   41.4599   10.4496 C.ar    1  UNL1        0.0032
@<TRIPOS>BOND
     1    12    13    1
     2    13    15   am
     3     1     5   ar
     4     2     4   ar
     5     2     6    1
     6     3     5   ar
     7     3    17    1
     8    17    19    1
     9    20    21   ar
    10    22    23   ar
    11    24    19   ar
    12     7     8   ar
    13     9    10   ar
    14    11     6   ar
    15    15     1    1
    16    13    14    2
    17     1     4   ar
    18     2     3   ar
    19    17    18    2
    20    19    20   ar
    21    21    22   ar
    22    23    24   ar
    23     6     7   ar
    24     8     9   ar
    25    10    11   ar
    26    15    16    1
