@<TRIPOS>MOLECULE
MolPort-008-272-732 35316707 MCULE-3221739527 PubChem-46951627 ZINC000035316707
 29 32 0 0 0
SMALL
GASTEIGER

@<TRIPOS>ATOM
      1 C          11.5024   40.9859    5.8962 C.2     1  UNL1        0.2295
      2 O          12.0771   40.0254    6.4723 O.2     1  UNL1       -0.2747
      3 N          12.1609   42.2454    5.7152 N.am    1  UNL1       -0.2641
      4 H          11.6952   42.9161    5.1651 H       1  UNL1        0.1567
      5 C          13.4316   42.6225    6.2579 C.ar    1  UNL1        0.1656
      6 C          15.5637   43.6110    6.8865 C.ar    1  UNL1        0.0527
      7 C          15.2851   42.3916    7.4865 C.ar    1  UNL1        0.1230
      8 C          16.1954   41.8173    8.3793 C.ar    1  UNL1        0.1566
      9 C          17.3948   42.5107    8.6460 C.ar    1  UNL1        0.0385
     10 C          17.6628   43.7474    8.0291 C.ar    1  UNL1        0.0037
     11 C          16.7399   44.3115    7.1360 C.ar    1  UNL1        0.0083
     12 N          14.0970   41.8347    7.1360 N.ar    1  UNL1       -0.2209
     13 S          14.2951   44.0336    5.8745 S.2     1  UNL1       -0.0513
     14 O          15.9047   40.5844    8.9761 O.3     1  UNL1       -0.4739
     15 C          14.6017   40.2212    9.4183 C.3     1  UNL1        0.2056
     16 C          14.6819   39.5198   10.7612 C.3     1  UNL1        0.0512
     17 C          10.1148   40.8005    5.3833 C.3     1  UNL1        0.1100
     18 C           9.4076   39.6674    6.1166 C.3     1  UNL1        0.1218
     19 C           7.0608   40.3641    6.7538 C.ar    1  UNL1        0.4220
     20 C           7.3068   41.1083    8.7001 C.ar    1  UNL1        0.1668
     21 C           8.5251   40.6759    8.2529 C.ar    1  UNL1        0.1000
     22 C           9.6777   40.7684    9.0305 C.ar    1  UNL1        0.0213
     23 C           9.5416   41.3276   10.3149 C.ar    1  UNL1        0.0131
     24 C           8.2819   41.7723   10.7795 C.ar    1  UNL1        0.0608
     25 C           7.1387   41.6655    9.9642 C.ar    1  UNL1        0.0505
     26 O           6.5121   40.0416    5.6668 O.2     1  UNL1       -0.2226
     27 O           6.4065   40.9106    7.7651 O.2     1  UNL1       -0.4067
     28 CL          8.1429   42.4632   12.3812 Cl      1  UNL1       -0.0821
     29 N           8.3803   40.1926    7.0088 N.ar    1  UNL1       -0.2616
@<TRIPOS>BOND
     1    19    27   ar
     2    20    27   ar
     3    21    22   ar
     4    21    29   ar
     5    23    24   ar
     6    24    28    1
     7    25    20   ar
     8    18    29    1
     9    18    17    1
    10    17     1    1
    11     1     3   am
    12     5    13   ar
    13     6    13   ar
    14     7     8   ar
    15     7    12   ar
    16     8    14    1
    17     9    10   ar
    18    11     6   ar
    19    15    14    1
    20    15    16    1
    21    29    19   ar
    22     3     5    1
    23    19    26    2
    24    20    21   ar
    25    22    23   ar
    26    24    25   ar
    27     1     2    2
    28     5    12   ar
    29     6     7   ar
    30     8     9   ar
    31    10    11   ar
    32     3     4    1
@<TRIPOS>MOLECULE
MolPort-008-272-732 35316707 MCULE-3221739527 PubChem-46951627 ZINC000035316707
 29 32 0 0 0
SMALL
GASTEIGER

@<TRIPOS>ATOM
      1 C          11.3971   40.9463    6.7995 C.2     1  UNL1        0.2295
      2 O          12.0320   40.1147    7.4996 O.2     1  UNL1       -0.2747
      3 N          12.0409   42.1046    6.2552 N.am    1  UNL1       -0.2641
      4 H          11.5139   42.6550    5.6318 H       1  UNL1        0.1567
      5 C          13.3777   42.5388    6.5309 C.ar    1  UNL1        0.1656
      6 C          15.5716   43.5807    6.6687 C.ar    1  UNL1        0.0527
      7 C          15.4059   42.4589    7.4679 C.ar    1  UNL1        0.1230
      8 C          16.4534   42.0032    8.2746 C.ar    1  UNL1        0.1566
      9 C          17.6722   42.7133    8.2483 C.ar    1  UNL1        0.0385
     10 C          17.8245   43.8500    7.4319 C.ar    1  UNL1        0.0037
     11 C          16.7647   44.2958    6.6284 C.ar    1  UNL1        0.0083
     12 N          14.1834   41.8723    7.3917 N.ar    1  UNL1       -0.2209
     13 S          14.1532   43.8738    5.8236 S.2     1  UNL1       -0.0513
     14 O          16.2754   40.8677    9.0744 O.3     1  UNL1       -0.4739
     15 C          17.3405   40.2314    9.7714 C.3     1  UNL1        0.2056
     16 C          16.7876   39.3043   10.8376 C.3     1  UNL1        0.0512
     17 C           9.9509   40.7104    6.5242 C.3     1  UNL1        0.1100
     18 C           9.1313   41.9668    6.7915 C.3     1  UNL1        0.1218
     19 C           9.4715   42.3709    9.2654 C.ar    1  UNL1        0.4220
     20 C           7.6071   41.8619   10.0825 C.ar    1  UNL1        0.1668
     21 C           7.5355   41.7003    8.7260 C.ar    1  UNL1        0.1000
     22 C           6.3775   41.2563    8.0906 C.ar    1  UNL1        0.0213
     23 C           5.2644   40.9794    8.9064 C.ar    1  UNL1        0.0131
     24 C           5.3364   41.1490   10.3087 C.ar    1  UNL1        0.0608
     25 C           6.5250   41.5970   10.9164 C.ar    1  UNL1        0.0505
     26 O          10.6743   42.7369    9.1899 O.2     1  UNL1       -0.2226
     27 O           8.8095   42.2778   10.4067 O.2     1  UNL1       -0.4067
     28 CL          3.9363   40.7970   11.2976 Cl      1  UNL1       -0.0821
     29 N           8.7221   42.0275    8.1901 N.ar    1  UNL1       -0.2616
@<TRIPOS>BOND
     1    19    27   ar
     2    20    27   ar
     3    21    22   ar
     4    21    29   ar
     5    23    24   ar
     6    24    28    1
     7    25    20   ar
     8    18    29    1
     9    18    17    1
    10    17     1    1
    11     1     3   am
    12     5    13   ar
    13     6    13   ar
    14     7     8   ar
    15     7    12   ar
    16     8    14    1
    17     9    10   ar
    18    11     6   ar
    19    15    14    1
    20    15    16    1
    21    29    19   ar
    22     3     5    1
    23    19    26    2
    24    20    21   ar
    25    22    23   ar
    26    24    25   ar
    27     1     2    2
    28     5    12   ar
    29     6     7   ar
    30     8     9   ar
    31    10    11   ar
    32     3     4    1
@<TRIPOS>MOLECULE
MolPort-008-272-732 35316707 MCULE-3221739527 PubChem-46951627 ZINC000035316707
 29 32 0 0 0
SMALL
GASTEIGER

@<TRIPOS>ATOM
      1 C          10.5217   41.2783    9.5107 C.2     1  UNL1        0.2295
      2 O          10.5920   42.3716   10.1307 O.2     1  UNL1       -0.2747
      3 N           9.3689   40.9392    8.7306 N.am    1  UNL1       -0.2641
      4 H           9.4240   40.1193    8.1883 H       1  UNL1        0.1567
      5 C           8.1438   41.6784    8.6640 C.ar    1  UNL1        0.1656
      6 C           6.3297   43.2811    8.4238 C.ar    1  UNL1        0.0527
      7 C           5.9567   42.0493    8.9415 C.ar    1  UNL1        0.1230
      8 C           4.6239   41.7987    9.2828 C.ar    1  UNL1        0.1566
      9 C           3.6808   42.8296    9.0869 C.ar    1  UNL1        0.0385
     10 C           4.0752   44.0742    8.5605 C.ar    1  UNL1        0.0037
     11 C           5.4157   44.3110    8.2222 C.ar    1  UNL1        0.0083
     12 N           6.9671   41.1524    9.0801 N.ar    1  UNL1       -0.2209
     13 S           7.9785   43.2781    8.1188 S.2     1  UNL1       -0.0513
     14 O           4.2601   40.5525    9.8077 O.3     1  UNL1       -0.4739
     15 C           4.0093   40.3335   11.1913 C.3     1  UNL1        0.2056
     16 C           3.4460   41.5912   11.8260 C.3     1  UNL1        0.0512
     17 C          11.6675   40.3270    9.5827 C.3     1  UNL1        0.1100
     18 C          12.1368   39.9296    8.1886 C.3     1  UNL1        0.1218
     19 C          12.2855   41.8374    6.5341 C.ar    1  UNL1        0.4220
     20 C          14.2338   42.5591    6.8274 C.ar    1  UNL1        0.1668
     21 C          14.0287   41.5228    7.6964 C.ar    1  UNL1        0.1000
     22 C          15.0146   41.0876    8.5799 C.ar    1  UNL1        0.0213
     23 C          16.2477   41.7655    8.5491 C.ar    1  UNL1        0.0131
     24 C          16.4598   42.8391    7.6530 C.ar    1  UNL1        0.0608
     25 C          15.4408   43.2496    6.7723 C.ar    1  UNL1        0.0505
     26 O          11.1246   41.7123    6.0617 O.2     1  UNL1       -0.2226
     27 O          13.1486   42.7466    6.1124 O.2     1  UNL1       -0.4067
     28 CL         18.0034   43.6634    7.6375 Cl      1  UNL1       -0.0821
     29 N          12.7827   41.0545    7.5219 N.ar    1  UNL1       -0.2616
@<TRIPOS>BOND
     1    19    27   ar
     2    20    27   ar
     3    21    22   ar
     4    21    29   ar
     5    23    24   ar
     6    24    28    1
     7    25    20   ar
     8    18    29    1
     9    18    17    1
    10    17     1    1
    11     1     3   am
    12     5    13   ar
    13     6    13   ar
    14     7     8   ar
    15     7    12   ar
    16     8    14    1
    17     9    10   ar
    18    11     6   ar
    19    15    14    1
    20    15    16    1
    21    29    19   ar
    22     3     5    1
    23    19    26    2
    24    20    21   ar
    25    22    23   ar
    26    24    25   ar
    27     1     2    2
    28     5    12   ar
    29     6     7   ar
    30     8     9   ar
    31    10    11   ar
    32     3     4    1
@<TRIPOS>MOLECULE
MolPort-008-272-732 35316707 MCULE-3221739527 PubChem-46951627 ZINC000035316707
 29 32 0 0 0
SMALL
GASTEIGER

@<TRIPOS>ATOM
      1 C          11.4941   41.2118    8.5829 C.2     1  UNL1        0.2295
      2 O          12.0674   41.3022    9.7000 O.2     1  UNL1       -0.2747
      3 N          12.1820   41.5292    7.3668 N.am    1  UNL1       -0.2641
      4 H          11.7097   41.3357    6.5249 H       1  UNL1        0.1567
      5 C          13.4907   42.1011    7.2584 C.ar    1  UNL1        0.1656
      6 C          15.5415   43.2903    6.7128 C.ar    1  UNL1        0.0527
      7 C          15.6579   42.3648    7.7397 C.ar    1  UNL1        0.1230
      8 C          16.8851   42.1693    8.3809 C.ar    1  UNL1        0.1566
      9 C          17.9901   42.9350    7.9528 C.ar    1  UNL1        0.0385
     10 C          17.8557   43.8703    6.9093 C.ar    1  UNL1        0.0037
     11 C          16.6181   44.0560    6.2757 C.ar    1  UNL1        0.0083
     12 N          14.5159   41.6964    8.0455 N.ar    1  UNL1       -0.2209
     13 S          13.9631   43.2946    6.1466 S.2     1  UNL1       -0.0513
     14 O          16.9912   41.2297    9.4138 O.3     1  UNL1       -0.4739
     15 C          16.1825   40.0611    9.4895 C.3     1  UNL1        0.2056
     16 C          16.4713   39.3078   10.7745 C.3     1  UNL1        0.0512
     17 C          10.0765   40.7535    8.5285 C.3     1  UNL1        0.1100
     18 C           9.1991   41.7734    7.8131 C.3     1  UNL1        0.1218
     19 C           6.9995   40.9706    6.8558 C.ar    1  UNL1        0.4220
     20 C           5.7291   40.9886    8.5256 C.ar    1  UNL1        0.1668
     21 C           6.9719   41.3904    8.9323 C.ar    1  UNL1        0.1000
     22 C           7.2440   41.7423   10.2528 C.ar    1  UNL1        0.0213
     23 C           6.1788   41.6647   11.1696 C.ar    1  UNL1        0.0131
     24 C           4.8942   41.2465   10.7509 C.ar    1  UNL1        0.0608
     25 C           4.6556   40.9011    9.4068 C.ar    1  UNL1        0.0505
     26 O           7.3970   40.8367    5.6681 O.2     1  UNL1       -0.2226
     27 O           5.7565   40.7304    7.2385 O.2     1  UNL1       -0.4067
     28 CL          3.5891   41.1593   11.9133 Cl      1  UNL1       -0.0821
     29 N           7.7963   41.3788    7.8728 N.ar    1  UNL1       -0.2616
@<TRIPOS>BOND
     1    19    27   ar
     2    20    27   ar
     3    21    22   ar
     4    21    29   ar
     5    23    24   ar
     6    24    28    1
     7    25    20   ar
     8    18    29    1
     9    18    17    1
    10    17     1    1
    11     1     3   am
    12     5    13   ar
    13     6    13   ar
    14     7     8   ar
    15     7    12   ar
    16     8    14    1
    17     9    10   ar
    18    11     6   ar
    19    15    14    1
    20    15    16    1
    21    29    19   ar
    22     3     5    1
    23    19    26    2
    24    20    21   ar
    25    22    23   ar
    26    24    25   ar
    27     1     2    2
    28     5    12   ar
    29     6     7   ar
    30     8     9   ar
    31    10    11   ar
    32     3     4    1
@<TRIPOS>MOLECULE
MolPort-008-272-732 35316707 MCULE-3221739527 PubChem-46951627 ZINC000035316707
 29 32 0 0 0
SMALL
GASTEIGER

@<TRIPOS>ATOM
      1 C          10.5435   40.6815    7.1167 C.2     1  UNL1        0.2295
      2 O          10.3448   39.4897    7.4701 O.2     1  UNL1       -0.2747
      3 N           9.6490   41.7309    7.5058 N.am    1  UNL1       -0.2641
      4 H           9.9202   42.6513    7.2853 H       1  UNL1        0.1567
      5 C           8.3982   41.5695    8.1848 C.ar    1  UNL1        0.1656
      6 C           6.0997   41.2590    8.9183 C.ar    1  UNL1        0.0527
      7 C           7.0033   41.5443    9.9316 C.ar    1  UNL1        0.1230
      8 C           6.5732   41.6345   11.2592 C.ar    1  UNL1        0.1566
      9 C           5.2041   41.4296   11.5315 C.ar    1  UNL1        0.0385
     10 C           4.2997   41.1409   10.4921 C.ar    1  UNL1        0.0037
     11 C           4.7458   41.0530    9.1651 C.ar    1  UNL1        0.0083
     12 N           8.2873   41.7213    9.5261 N.ar    1  UNL1       -0.2209
     13 S           6.9077   41.2208    7.4495 S.2     1  UNL1       -0.0513
     14 O           7.4940   41.9264   12.2730 O.3     1  UNL1       -0.4739
     15 C           8.5739   41.0651   12.6158 C.3     1  UNL1        0.2056
     16 C           8.9322   41.2334   14.0804 C.3     1  UNL1        0.0512
     17 C          11.7402   41.0039    6.2880 C.3     1  UNL1        0.1100
     18 C          12.0474   42.4958    6.3283 C.3     1  UNL1        0.1218
     19 C          14.2830   43.6723    6.1964 C.ar    1  UNL1        0.4220
     20 C          15.4774   42.5540    7.5099 C.ar    1  UNL1        0.1668
     21 C          14.2201   42.0152    7.5150 C.ar    1  UNL1        0.1000
     22 C          13.8912   40.9033    8.2879 C.ar    1  UNL1        0.0213
     23 C          14.9137   40.3474    9.0793 C.ar    1  UNL1        0.0131
     24 C          16.2133   40.9055    9.0771 C.ar    1  UNL1        0.0608
     25 C          16.5099   42.0282    8.2807 C.ar    1  UNL1        0.0505
     26 O          13.9383   44.5481    5.3593 O.2     1  UNL1       -0.2226
     27 O          15.5062   43.5798    6.6908 O.2     1  UNL1       -0.4067
     28 CL         17.4646   40.1930   10.0716 Cl      1  UNL1       -0.0821
     29 N          13.4439   42.7254    6.6811 N.ar    1  UNL1       -0.2616
@<TRIPOS>BOND
     1    19    27   ar
     2    20    27   ar
     3    21    22   ar
     4    21    29   ar
     5    23    24   ar
     6    24    28    1
     7    25    20   ar
     8    18    29    1
     9    18    17    1
    10    17     1    1
    11     1     3   am
    12     5    13   ar
    13     6    13   ar
    14     7     8   ar
    15     7    12   ar
    16     8    14    1
    17     9    10   ar
    18    11     6   ar
    19    15    14    1
    20    15    16    1
    21    29    19   ar
    22     3     5    1
    23    19    26    2
    24    20    21   ar
    25    22    23   ar
    26    24    25   ar
    27     1     2    2
    28     5    12   ar
    29     6     7   ar
    30     8     9   ar
    31    10    11   ar
    32     3     4    1
@<TRIPOS>MOLECULE
MolPort-008-272-732 35316707 MCULE-3221739527 PubChem-46951627 ZINC000035316707
 29 32 0 0 0
SMALL
GASTEIGER

@<TRIPOS>ATOM
      1 C           9.6448   40.1256    6.6441 C.2     1  UNL1        0.2295
      2 O           9.0594   39.0125    6.5873 O.2     1  UNL1       -0.2747
      3 N           9.1130   41.2062    7.4200 N.am    1  UNL1       -0.2641
      4 H           9.6738   42.0108    7.5056 H       1  UNL1        0.1567
      5 C           7.8435   41.2284    8.0831 C.ar    1  UNL1        0.1656
      6 C           5.5160   41.2906    8.7877 C.ar    1  UNL1        0.0527
      7 C           6.4410   41.3372    9.8206 C.ar    1  UNL1        0.1230
      8 C           6.0145   41.4130   11.1502 C.ar    1  UNL1        0.1566
      9 C           4.6270   41.4418   11.4043 C.ar    1  UNL1        0.0385
     10 C           3.7010   41.3937   10.3451 C.ar    1  UNL1        0.0037
     11 C           4.1436   41.3173    9.0163 C.ar    1  UNL1        0.0083
     12 N           7.7418   41.3057    9.4314 N.ar    1  UNL1       -0.2209
     13 S           6.3258   41.2070    7.3217 S.2     1  UNL1       -0.0513
     14 O           6.9576   41.4629   12.1841 O.3     1  UNL1       -0.4739
     15 C           8.2770   41.9674   12.0109 C.3     1  UNL1        0.2056
     16 C           9.2437   41.2236   12.9131 C.3     1  UNL1        0.0512
     17 C          10.9218   40.3139    5.8980 C.3     1  UNL1        0.1100
     18 C          11.5483   41.6653    6.2189 C.3     1  UNL1        0.1218
     19 C          13.0360   40.6126    7.9732 C.ar    1  UNL1        0.4220
     20 C          14.8010   41.7375    7.8249 C.ar    1  UNL1        0.1668
     21 C          13.9162   42.2097    6.8946 C.ar    1  UNL1        0.1000
     22 C          14.2256   43.2710    6.0462 C.ar    1  UNL1        0.0213
     23 C          15.5030   43.8468    6.1793 C.ar    1  UNL1        0.0131
     24 C          16.4198   43.3574    7.1387 C.ar    1  UNL1        0.0608
     25 C          16.0710   42.2846    7.9814 C.ar    1  UNL1        0.0505
     26 O          12.2054   39.7545    8.3737 O.2     1  UNL1       -0.2226
     27 O          14.2471   40.7484    8.4873 O.2     1  UNL1       -0.4067
     28 CL         18.0012   44.0931    7.2812 Cl      1  UNL1       -0.0821
     29 N          12.7830   41.4945    6.9762 N.ar    1  UNL1       -0.2616
@<TRIPOS>BOND
     1    19    27   ar
     2    20    27   ar
     3    21    22   ar
     4    21    29   ar
     5    23    24   ar
     6    24    28    1
     7    25    20   ar
     8    18    29    1
     9    18    17    1
    10    17     1    1
    11     1     3   am
    12     5    13   ar
    13     6    13   ar
    14     7     8   ar
    15     7    12   ar
    16     8    14    1
    17     9    10   ar
    18    11     6   ar
    19    15    14    1
    20    15    16    1
    21    29    19   ar
    22     3     5    1
    23    19    26    2
    24    20    21   ar
    25    22    23   ar
    26    24    25   ar
    27     1     2    2
    28     5    12   ar
    29     6     7   ar
    30     8     9   ar
    31    10    11   ar
    32     3     4    1
@<TRIPOS>MOLECULE
MolPort-008-272-732 35316707 MCULE-3221739527 PubChem-46951627 ZINC000035316707
 29 32 0 0 0
SMALL
GASTEIGER

@<TRIPOS>ATOM
      1 C           9.9526   41.4598    6.3171 C.2     1  UNL1        0.2295
      2 O           9.3273   41.5130    5.2257 O.2     1  UNL1       -0.2747
      3 N           9.3244   41.8244    7.5520 N.am    1  UNL1       -0.2641
      4 H           9.8353   41.6588    8.3771 H       1  UNL1        0.1567
      5 C           8.0243   42.4067    7.7015 C.ar    1  UNL1        0.1656
      6 C           5.9934   43.7456    7.7232 C.ar    1  UNL1        0.0527
      7 C           5.9311   42.5769    8.4680 C.ar    1  UNL1        0.1230
      8 C           4.7638   42.2397    9.1603 C.ar    1  UNL1        0.1566
      9 C           3.6632   43.1186    9.0786 C.ar    1  UNL1        0.0385
     10 C           3.7422   44.3008    8.3184 C.ar    1  UNL1        0.0037
     11 C           4.9197   44.6258    7.6288 C.ar    1  UNL1        0.0083
     12 N           7.0640   41.8278    8.4611 N.ar    1  UNL1       -0.2209
     13 S           7.5096   43.8738    7.0186 S.2     1  UNL1       -0.0513
     14 O           4.7141   41.0591    9.9116 O.3     1  UNL1       -0.4739
     15 C           4.7381   41.0399   11.3344 C.3     1  UNL1        0.2056
     16 C           3.8606   39.9180   11.8571 C.3     1  UNL1        0.0512
     17 C          11.3696   40.9963    6.3209 C.3     1  UNL1        0.1100
     18 C          11.6995   40.2565    7.6114 C.3     1  UNL1        0.1218
     19 C          13.7963   39.8901    8.9784 C.ar    1  UNL1        0.4220
     20 C          15.0837   41.3875    8.2692 C.ar    1  UNL1        0.1668
     21 C          13.9070   41.4754    7.5772 C.ar    1  UNL1        0.1000
     22 C          13.6933   42.4395    6.5941 C.ar    1  UNL1        0.0213
     23 C          14.7494   43.3318    6.3307 C.ar    1  UNL1        0.0131
     24 C          15.9676   43.2400    7.0435 C.ar    1  UNL1        0.0608
     25 C          16.1466   42.2540    8.0327 C.ar    1  UNL1        0.0505
     26 O          13.3618   38.9212    9.6560 O.2     1  UNL1       -0.2226
     27 O          15.0056   40.4027    9.1341 O.2     1  UNL1       -0.4067
     28 CL         17.2633   44.3630    6.6942 Cl      1  UNL1       -0.0821
     29 N          13.0752   40.5186    8.0188 N.ar    1  UNL1       -0.2616
@<TRIPOS>BOND
     1    19    27   ar
     2    20    27   ar
     3    21    22   ar
     4    21    29   ar
     5    23    24   ar
     6    24    28    1
     7    25    20   ar
     8    18    29    1
     9    18    17    1
    10    17     1    1
    11     1     3   am
    12     5    13   ar
    13     6    13   ar
    14     7     8   ar
    15     7    12   ar
    16     8    14    1
    17     9    10   ar
    18    11     6   ar
    19    15    14    1
    20    15    16    1
    21    29    19   ar
    22     3     5    1
    23    19    26    2
    24    20    21   ar
    25    22    23   ar
    26    24    25   ar
    27     1     2    2
    28     5    12   ar
    29     6     7   ar
    30     8     9   ar
    31    10    11   ar
    32     3     4    1
@<TRIPOS>MOLECULE
MolPort-008-272-732 35316707 MCULE-3221739527 PubChem-46951627 ZINC000035316707
 29 32 0 0 0
SMALL
GASTEIGER

@<TRIPOS>ATOM
      1 C           9.6000   41.8334    7.5820 C.2     1  UNL1        0.2295
      2 O          10.0434   41.2964    8.6307 O.2     1  UNL1       -0.2747
      3 N           8.2550   42.3215    7.5086 N.am    1  UNL1       -0.2641
      4 H           8.0074   42.8235    6.6987 H       1  UNL1        0.1567
      5 C           7.2361   42.1493    8.5004 C.ar    1  UNL1        0.1656
      6 C           5.8070   41.5796   10.3847 C.ar    1  UNL1        0.0527
      7 C           5.2029   42.3561    9.4066 C.ar    1  UNL1        0.1230
      8 C           3.8696   42.7554    9.5428 C.ar    1  UNL1        0.1566
      9 C           3.1656   42.3456   10.6947 C.ar    1  UNL1        0.0385
     10 C           3.7928   41.5577   11.6783 C.ar    1  UNL1        0.0037
     11 C           5.1312   41.1652   11.5284 C.ar    1  UNL1        0.0083
     12 N           5.9964   42.6741    8.3513 N.ar    1  UNL1       -0.2209
     13 S           7.3925   41.2627    9.9403 S.2     1  UNL1       -0.0513
     14 O           3.2696   43.5363    8.5472 O.3     1  UNL1       -0.4739
     15 C           3.7992   44.7830    8.1107 C.3     1  UNL1        0.2056
     16 C           2.7508   45.5512    7.3281 C.3     1  UNL1        0.0512
     17 C          10.4991   41.9728    6.4009 C.3     1  UNL1        0.1100
     18 C          11.3453   40.7206    6.2069 C.3     1  UNL1        0.1218
     19 C          12.9668   40.0203    8.0178 C.ar    1  UNL1        0.4220
     20 C          14.5010   41.4413    7.8459 C.ar    1  UNL1        0.1668
     21 C          13.5625   41.7107    6.8879 C.ar    1  UNL1        0.1000
     22 C          13.6898   42.7790    6.0023 C.ar    1  UNL1        0.0213
     23 C          14.8390   43.5820    6.1274 C.ar    1  UNL1        0.0131
     24 C          15.8116   43.3026    7.1155 C.ar    1  UNL1        0.0608
     25 C          15.6477   42.2156    7.9954 C.ar    1  UNL1        0.0505
     26 O          12.2984   39.0407    8.4420 O.2     1  UNL1       -0.2226
     27 O          14.1236   40.3927    8.5400 O.2     1  UNL1       -0.4067
     28 CL         17.2305   44.3183    7.2472 Cl      1  UNL1       -0.0821
     29 N          12.5764   40.8047    6.9844 N.ar    1  UNL1       -0.2616
@<TRIPOS>BOND
     1    19    27   ar
     2    20    27   ar
     3    21    22   ar
     4    21    29   ar
     5    23    24   ar
     6    24    28    1
     7    25    20   ar
     8    18    29    1
     9    18    17    1
    10    17     1    1
    11     1     3   am
    12     5    13   ar
    13     6    13   ar
    14     7     8   ar
    15     7    12   ar
    16     8    14    1
    17     9    10   ar
    18    11     6   ar
    19    15    14    1
    20    15    16    1
    21    29    19   ar
    22     3     5    1
    23    19    26    2
    24    20    21   ar
    25    22    23   ar
    26    24    25   ar
    27     1     2    2
    28     5    12   ar
    29     6     7   ar
    30     8     9   ar
    31    10    11   ar
    32     3     4    1
@<TRIPOS>MOLECULE
MolPort-008-272-732 35316707 MCULE-3221739527 PubChem-46951627 ZINC000035316707
 29 32 0 0 0
SMALL
GASTEIGER

@<TRIPOS>ATOM
      1 C          11.8882   40.1443   10.3762 C.2     1  UNL1        0.2295
      2 O          11.0030   39.2564   10.2621 O.2     1  UNL1       -0.2747
      3 N          11.6221   41.5080   10.0267 N.am    1  UNL1       -0.2641
      4 H          12.3222   42.1667   10.2396 H       1  UNL1        0.1567
      5 C          10.4354   42.0051    9.3973 C.ar    1  UNL1        0.1656
      6 C           8.3321   43.0331    8.7360 C.ar    1  UNL1        0.0527
      7 C           8.9160   42.2241    7.7720 C.ar    1  UNL1        0.1230
      8 C           8.3007   42.0470    6.5288 C.ar    1  UNL1        0.1566
      9 C           7.0783   42.7099    6.2899 C.ar    1  UNL1        0.0385
     10 C           6.4986   43.5274    7.2785 C.ar    1  UNL1        0.0037
     11 C           7.1278   43.6961    8.5208 C.ar    1  UNL1        0.0083
     12 N          10.0891   41.6458    8.1381 N.ar    1  UNL1       -0.2209
     13 S           9.2959   43.0443   10.1081 S.2     1  UNL1       -0.0513
     14 O           8.8979   41.2254    5.5650 O.3     1  UNL1       -0.4739
     15 C          10.2893   41.2580    5.2680 C.3     1  UNL1        0.2056
     16 C          10.6551   40.1068    4.3499 C.3     1  UNL1        0.0512
     17 C          13.2333   39.7669   10.8967 C.3     1  UNL1        0.1100
     18 C          14.0942   39.1580    9.7968 C.3     1  UNL1        0.1218
     19 C          16.4867   39.8964   10.1570 C.ar    1  UNL1        0.4220
     20 C          16.6731   41.5290    8.8522 C.ar    1  UNL1        0.1668
     21 C          15.4070   41.0265    8.7267 C.ar    1  UNL1        0.1000
     22 C          14.4691   41.5832    7.8593 C.ar    1  UNL1        0.0213
     23 C          14.8782   42.6963    7.1013 C.ar    1  UNL1        0.0131
     24 C          16.1880   43.2148    7.2280 C.ar    1  UNL1        0.0608
     25 C          17.1083   42.6277    8.1174 C.ar    1  UNL1        0.0505
     26 O          16.7768   39.0334   11.0274 O.2     1  UNL1       -0.2226
     27 O          17.3340   40.8223    9.7397 O.2     1  UNL1       -0.4067
     28 CL         16.6685   44.5998    6.2724 Cl      1  UNL1       -0.0821
     29 N          15.2761   39.9773    9.5540 N.ar    1  UNL1       -0.2616
@<TRIPOS>BOND
     1    19    27   ar
     2    20    27   ar
     3    21    22   ar
     4    21    29   ar
     5    23    24   ar
     6    24    28    1
     7    25    20   ar
     8    18    29    1
     9    18    17    1
    10    17     1    1
    11     1     3   am
    12     5    13   ar
    13     6    13   ar
    14     7     8   ar
    15     7    12   ar
    16     8    14    1
    17     9    10   ar
    18    11     6   ar
    19    15    14    1
    20    15    16    1
    21    29    19   ar
    22     3     5    1
    23    19    26    2
    24    20    21   ar
    25    22    23   ar
    26    24    25   ar
    27     1     2    2
    28     5    12   ar
    29     6     7   ar
    30     8     9   ar
    31    10    11   ar
    32     3     4    1
@<TRIPOS>MOLECULE
MolPort-008-272-732 35316707 MCULE-3221739527 PubChem-46951627 ZINC000035316707
 29 32 0 0 0
SMALL
GASTEIGER

@<TRIPOS>ATOM
      1 C          11.5426   39.9993   10.6476 C.2     1  UNL1        0.2295
      2 O          10.9963   38.9601   10.1932 O.2     1  UNL1       -0.2747
      3 N          10.7640   41.1324   11.0510 N.am    1  UNL1       -0.2641
      4 H          11.2453   41.8679   11.4944 H       1  UNL1        0.1567
      5 C           9.3527   41.2978   10.8710 C.ar    1  UNL1        0.1656
      6 C           6.9364   41.5367   11.0186 C.ar    1  UNL1        0.0527
      7 C           7.4406   41.4817    9.7274 C.ar    1  UNL1        0.1230
      8 C           6.5808   41.5628    8.6274 C.ar    1  UNL1        0.1566
      9 C           5.1979   41.6994    8.8713 C.ar    1  UNL1        0.0385
     10 C           4.7019   41.7538   10.1876 C.ar    1  UNL1        0.0037
     11 C           5.5765   41.6718   11.2812 C.ar    1  UNL1        0.0083
     12 N           8.7890   41.3453    9.6404 N.ar    1  UNL1       -0.2209
     13 S           8.2006   41.4122   12.1132 S.2     1  UNL1       -0.0513
     14 O           7.1011   41.5026    7.3288 O.3     1  UNL1       -0.4739
     15 C           7.5245   42.6528    6.6055 C.3     1  UNL1        0.2056
     16 C           6.6623   43.8466    6.9706 C.3     1  UNL1        0.0512
     17 C          13.0271   40.0423   10.7779 C.3     1  UNL1        0.1100
     18 C          13.7017   39.4612    9.5414 C.3     1  UNL1        0.1218
     19 C          16.0672   40.3467    9.4009 C.ar    1  UNL1        0.4220
     20 C          15.8781   41.9788    8.0959 C.ar    1  UNL1        0.1668
     21 C          14.6467   41.3992    8.2332 C.ar    1  UNL1        0.1000
     22 C          13.5168   41.8917    7.5832 C.ar    1  UNL1        0.0213
     23 C          13.6906   43.0227    6.7636 C.ar    1  UNL1        0.0131
     24 C          14.9639   43.6210    6.6185 C.ar    1  UNL1        0.0608
     25 C          16.0832   43.0971    7.2934 C.ar    1  UNL1        0.0505
     26 O          16.5840   39.5088   10.1866 O.2     1  UNL1       -0.2226
     27 O          16.7510   41.3197    8.8222 O.2     1  UNL1       -0.4067
     28 CL         15.1498   45.0262    5.5923 Cl      1  UNL1       -0.0821
     29 N          14.7550   40.3495    9.0632 N.ar    1  UNL1       -0.2616
@<TRIPOS>BOND
     1    19    27   ar
     2    20    27   ar
     3    21    22   ar
     4    21    29   ar
     5    23    24   ar
     6    24    28    1
     7    25    20   ar
     8    18    29    1
     9    18    17    1
    10    17     1    1
    11     1     3   am
    12     5    13   ar
    13     6    13   ar
    14     7     8   ar
    15     7    12   ar
    16     8    14    1
    17     9    10   ar
    18    11     6   ar
    19    15    14    1
    20    15    16    1
    21    29    19   ar
    22     3     5    1
    23    19    26    2
    24    20    21   ar
    25    22    23   ar
    26    24    25   ar
    27     1     2    2
    28     5    12   ar
    29     6     7   ar
    30     8     9   ar
    31    10    11   ar
    32     3     4    1
