@<TRIPOS>MOLECULE
MolPort-008-289-815 19239352 MCULE-6904891206 PubChem-46971364 ZINC000019239352 ZINC19239352
 29 32 0 0 0
SMALL
GASTEIGER

@<TRIPOS>ATOM
      1 C          11.0691   41.1263    6.7688 C.ar    1  UNL1        0.1880
      2 C           8.6960   40.9089    6.5021 C.ar    1  UNL1        0.1127
      3 N          10.6745   41.1457    5.4778 N.ar    1  UNL1       -0.1256
      4 N           9.3562   41.0271    5.3296 N.ar    1  UNL1       -0.1440
      5 S           9.7525   40.9567    7.8129 S.2     1  UNL1       -0.0347
      6 C          13.2944   42.3783    6.9357 C.2     1  UNL1        0.2555
      7 N          12.4450   41.2438    7.1498 N.am    1  UNL1       -0.2591
      8 O          12.8582   43.4132    6.3644 O.2     1  UNL1       -0.2696
      9 H          12.8471   40.4682    7.6038 H       1  UNL1        0.1571
     10 C          17.7463   39.2674   10.8865 C.3     1  UNL1        0.0343
     11 C          16.8819   40.0520    9.9673 C.ar    1  UNL1        0.0165
     12 C          15.5164   39.7361    9.8257 C.ar    1  UNL1        0.0978
     13 C          15.2793   41.4803    8.2853 C.ar    1  UNL1        0.1696
     14 C          14.6923   42.3388    7.3865 C.ar    1  UNL1        0.1103
     15 C          15.7307   43.1820    6.9859 C.ar    1  UNL1        0.1281
     16 C          17.4123   41.1176    9.2276 C.ar    1  UNL1        0.0993
     17 N          14.7227   40.4577    8.9809 N.ar    1  UNL1       -0.2251
     18 N          16.8692   42.8187    7.6320 N.ar    1  UNL1       -0.1619
     19 N          16.5712   41.7920    8.4083 N.ar    1  UNL1       -0.2108
     20 C           7.2129   40.7916    6.6040 C.3     1  UNL1        0.0592
     21 C           6.6274   41.9747    7.3716 C.3     1  UNL1        0.0334
     22 C           6.1184   41.6381    8.7456 C.ar    1  UNL1       -0.0188
     23 C           4.8063   41.1709    8.8706 C.ar    1  UNL1       -0.0041
     24 C           4.2864   40.8506   10.1276 C.ar    1  UNL1        0.0028
     25 C           5.0770   40.9978   11.2703 C.ar    1  UNL1        0.0369
     26 C           6.3897   41.4671   11.1642 C.ar    1  UNL1        0.1384
     27 C           6.9054   41.7889    9.8986 C.ar    1  UNL1        0.0326
     28 C           8.5522   41.3361   12.3568 C.3     1  UNL1        0.2525
     29 O           7.1569   41.6035   12.3243 O.3     1  UNL1       -0.4714
@<TRIPOS>BOND
     1    10    11    1
     2    11    12   ar
     3    13    17   ar
     4    14    15   ar
     5    14     6    1
     6     6     7   am
     7     1     5   ar
     8     2     5   ar
     9    20     2    1
    10    20    21    1
    11    21    22    1
    12    23    24   ar
    13    25    26   ar
    14    26    29    1
    15    27    22   ar
    16    28    29    1
    17    19    18   ar
    18    19    16   ar
    19    19    13   ar
    20     7     1    1
    21     3     4   ar
    22    12    17   ar
    23    13    14   ar
    24    15    18   ar
    25    16    11   ar
    26     6     8    2
    27     1     3   ar
    28     2     4   ar
    29    22    23   ar
    30    24    25   ar
    31    26    27   ar
    32     7     9    1
@<TRIPOS>MOLECULE
MolPort-008-289-815 19239352 MCULE-6904891206 PubChem-46971364 ZINC000019239352 ZINC19239352
 29 32 0 0 0
SMALL
GASTEIGER

@<TRIPOS>ATOM
      1 C          11.2048   41.0999    6.6355 C.ar    1  UNL1        0.1880
      2 C           8.8449   40.9190    6.2507 C.ar    1  UNL1        0.1127
      3 N          10.8871   40.9651    5.3303 N.ar    1  UNL1       -0.1256
      4 N           9.5761   40.8667    5.1162 N.ar    1  UNL1       -0.1440
      5 S           9.8243   41.1037    7.6084 S.2     1  UNL1       -0.0347
      6 C          13.4327   42.3390    6.8560 C.2     1  UNL1        0.2555
      7 N          12.5595   41.2253    7.0838 N.am    1  UNL1       -0.2591
      8 O          13.0402   43.3455    6.2076 O.2     1  UNL1       -0.2696
      9 H          12.9274   40.4717    7.5996 H       1  UNL1        0.1571
     10 C          17.7143   39.1996   10.9692 C.3     1  UNL1        0.0343
     11 C          16.8881   39.9937   10.0235 C.ar    1  UNL1        0.0165
     12 C          15.5386   39.6586    9.7973 C.ar    1  UNL1        0.0978
     13 C          15.3556   41.4391    8.2914 C.ar    1  UNL1        0.1696
     14 C          14.8038   42.3112    7.3835 C.ar    1  UNL1        0.1103
     15 C          15.8471   43.1824    7.0637 C.ar    1  UNL1        0.1281
     16 C          17.4391   41.0876    9.3425 C.ar    1  UNL1        0.0993
     17 N          14.7801   40.3889    8.9281 N.ar    1  UNL1       -0.2251
     18 N          16.9544   42.8213    7.7631 N.ar    1  UNL1       -0.1619
     19 N          16.6326   41.7693    8.4948 N.ar    1  UNL1       -0.2108
     20 C           7.3551   40.8587    6.2739 C.3     1  UNL1        0.0592
     21 C           6.8355   40.8519    7.7097 C.3     1  UNL1        0.0334
     22 C           5.8905   41.9742    8.0378 C.ar    1  UNL1       -0.0188
     23 C           6.1291   43.2295    7.4696 C.ar    1  UNL1       -0.0041
     24 C           5.2818   44.3050    7.7495 C.ar    1  UNL1        0.0028
     25 C           4.1892   44.1317    8.6031 C.ar    1  UNL1        0.0369
     26 C           3.9379   42.8845    9.1829 C.ar    1  UNL1        0.1384
     27 C           4.7940   41.8086    8.8990 C.ar    1  UNL1        0.0326
     28 C           2.9074   42.0403   11.2664 C.3     1  UNL1        0.2525
     29 O           2.8374   42.7410   10.0321 O.3     1  UNL1       -0.4714
@<TRIPOS>BOND
     1    10    11    1
     2    11    12   ar
     3    13    17   ar
     4    14    15   ar
     5    14     6    1
     6     6     7   am
     7     1     5   ar
     8     2     5   ar
     9    20     2    1
    10    20    21    1
    11    21    22    1
    12    23    24   ar
    13    25    26   ar
    14    26    29    1
    15    27    22   ar
    16    28    29    1
    17    19    18   ar
    18    19    16   ar
    19    19    13   ar
    20     7     1    1
    21     3     4   ar
    22    12    17   ar
    23    13    14   ar
    24    15    18   ar
    25    16    11   ar
    26     6     8    2
    27     1     3   ar
    28     2     4   ar
    29    22    23   ar
    30    24    25   ar
    31    26    27   ar
    32     7     9    1
@<TRIPOS>MOLECULE
MolPort-008-289-815 19239352 MCULE-6904891206 PubChem-46971364 ZINC000019239352 ZINC19239352
 29 32 0 0 0
SMALL
GASTEIGER

@<TRIPOS>ATOM
      1 C           8.1512   43.3451    8.0995 C.ar    1  UNL1        0.1880
      2 C           5.9013   44.1216    7.8085 C.ar    1  UNL1        0.1127
      3 N           7.8709   44.4485    8.8252 N.ar    1  UNL1       -0.1256
      4 N           6.6206   44.8788    8.6652 N.ar    1  UNL1       -0.1440
      5 S           6.8125   42.8419    7.2012 S.2     1  UNL1       -0.0347
      6 C           9.7003   41.3189    8.3056 C.2     1  UNL1        0.2555
      7 N           9.4383   42.7170    8.1289 N.am    1  UNL1       -0.2591
      8 O           8.7556   40.4984    8.4534 O.2     1  UNL1       -0.2696
      9 H          10.2207   43.3040    8.0167 H       1  UNL1        0.1571
     10 C          16.1279   42.9018    7.1709 C.3     1  UNL1        0.0343
     11 C          14.7581   42.4049    7.4616 C.ar    1  UNL1        0.0165
     12 C          13.6431   43.2532    7.3140 C.ar    1  UNL1        0.0978
     13 C          12.2363   41.5111    7.9903 C.ar    1  UNL1        0.1696
     14 C          11.0864   40.8316    8.3149 C.ar    1  UNL1        0.1103
     15 C          11.5275   39.5531    8.6626 C.ar    1  UNL1        0.1281
     16 C          14.5552   41.0851    7.8870 C.ar    1  UNL1        0.0993
     17 N          12.3848   42.7957    7.5813 N.ar    1  UNL1       -0.2251
     18 N          12.8797   39.5040    8.5411 N.ar    1  UNL1       -0.1619
     19 N          13.2824   40.6951    8.1350 N.ar    1  UNL1       -0.2108
     20 C           4.4689   44.3799    7.4843 C.3     1  UNL1        0.0592
     21 C           3.5922   44.1976    8.7211 C.3     1  UNL1        0.0334
     22 C           3.8332   42.9196    9.4753 C.ar    1  UNL1       -0.0188
     23 C           2.9747   41.8405    9.2430 C.ar    1  UNL1       -0.0041
     24 C           3.1550   40.6339    9.9245 C.ar    1  UNL1        0.0028
     25 C           4.1965   40.4993   10.8461 C.ar    1  UNL1        0.0369
     26 C           5.0621   41.5691   11.0935 C.ar    1  UNL1        0.1384
     27 C           4.8743   42.7793   10.4069 C.ar    1  UNL1        0.0326
     28 C           7.4670   41.5203   11.6679 C.3     1  UNL1        0.2525
     29 O           6.0951   41.4051   12.0203 O.3     1  UNL1       -0.4714
@<TRIPOS>BOND
     1    10    11    1
     2    11    12   ar
     3    13    17   ar
     4    14    15   ar
     5    14     6    1
     6     6     7   am
     7     1     5   ar
     8     2     5   ar
     9    20     2    1
    10    20    21    1
    11    21    22    1
    12    23    24   ar
    13    25    26   ar
    14    26    29    1
    15    27    22   ar
    16    28    29    1
    17    19    18   ar
    18    19    16   ar
    19    19    13   ar
    20     7     1    1
    21     3     4   ar
    22    12    17   ar
    23    13    14   ar
    24    15    18   ar
    25    16    11   ar
    26     6     8    2
    27     1     3   ar
    28     2     4   ar
    29    22    23   ar
    30    24    25   ar
    31    26    27   ar
    32     7     9    1
@<TRIPOS>MOLECULE
MolPort-008-289-815 19239352 MCULE-6904891206 PubChem-46971364 ZINC000019239352 ZINC19239352
 29 32 0 0 0
SMALL
GASTEIGER

@<TRIPOS>ATOM
      1 C          12.0975   40.9482    9.6000 C.ar    1  UNL1        0.1880
      2 C           9.9253   41.9233    9.8833 C.ar    1  UNL1        0.1127
      3 N          11.8540   41.9634    8.7440 N.ar    1  UNL1       -0.1256
      4 N          10.6482   42.5065    8.9026 N.ar    1  UNL1       -0.1440
      5 S          10.7817   40.6761   10.6233 S.2     1  UNL1       -0.0347
      6 C          13.9153   39.5303   10.7104 C.2     1  UNL1        0.2555
      7 N          13.3362   40.2288    9.6006 N.am    1  UNL1       -0.2591
      8 O          13.3345   39.4992   11.8281 O.2     1  UNL1       -0.2696
      9 H          13.8400   40.2126    8.7549 H       1  UNL1        0.1571
     10 C          17.1812   34.5935    7.5374 C.3     1  UNL1        0.0343
     11 C          16.5974   35.7177    8.3139 C.ar    1  UNL1        0.0165
     12 C          15.2414   36.0664    8.1583 C.ar    1  UNL1        0.0978
     13 C          15.5077   37.7778    9.7303 C.ar    1  UNL1        0.1696
     14 C          15.2021   38.8402   10.5472 C.ar    1  UNL1        0.1103
     15 C          16.4015   39.1287   11.2015 C.ar    1  UNL1        0.1281
     16 C          17.3871   36.4477    9.2125 C.ar    1  UNL1        0.0993
     17 N          14.7057   37.0995    8.8724 N.ar    1  UNL1       -0.2251
     18 N          17.3573   38.2629   10.7743 N.ar    1  UNL1       -0.1619
     19 N          16.7941   37.4599    9.8890 N.ar    1  UNL1       -0.2108
     20 C           8.5566   42.3686   10.2735 C.3     1  UNL1        0.0592
     21 C           7.4940   41.4812    9.6292 C.3     1  UNL1        0.0334
     22 C           6.0777   41.8606    9.9611 C.ar    1  UNL1       -0.0188
     23 C           5.4772   41.2701   11.0775 C.ar    1  UNL1       -0.0041
     24 C           4.1606   41.5866   11.4226 C.ar    1  UNL1        0.0028
     25 C           3.4339   42.4965   10.6503 C.ar    1  UNL1        0.0369
     26 C           4.0172   43.0935    9.5286 C.ar    1  UNL1        0.1384
     27 C           5.3398   42.7697    9.1863 C.ar    1  UNL1        0.0326
     28 C           3.8481   44.8522    7.7982 C.3     1  UNL1        0.2525
     29 O           3.2663   44.0002    8.7756 O.3     1  UNL1       -0.4714
@<TRIPOS>BOND
     1    10    11    1
     2    11    12   ar
     3    13    17   ar
     4    14    15   ar
     5    14     6    1
     6     6     7   am
     7     1     5   ar
     8     2     5   ar
     9    20     2    1
    10    20    21    1
    11    21    22    1
    12    23    24   ar
    13    25    26   ar
    14    26    29    1
    15    27    22   ar
    16    28    29    1
    17    19    18   ar
    18    19    16   ar
    19    19    13   ar
    20     7     1    1
    21     3     4   ar
    22    12    17   ar
    23    13    14   ar
    24    15    18   ar
    25    16    11   ar
    26     6     8    2
    27     1     3   ar
    28     2     4   ar
    29    22    23   ar
    30    24    25   ar
    31    26    27   ar
    32     7     9    1
@<TRIPOS>MOLECULE
MolPort-008-289-815 19239352 MCULE-6904891206 PubChem-46971364 ZINC000019239352 ZINC19239352
 29 32 0 0 0
SMALL
GASTEIGER

@<TRIPOS>ATOM
      1 C          10.7431   40.7808    6.8880 C.ar    1  UNL1        0.1880
      2 C           8.3749   40.5012    6.6359 C.ar    1  UNL1        0.1127
      3 N          10.2843   41.1861    5.6847 N.ar    1  UNL1       -0.1256
      4 N           8.9686   41.0327    5.5453 N.ar    1  UNL1       -0.1440
      5 S           9.4912   40.1975    7.8600 S.2     1  UNL1       -0.0347
      6 C          12.7061   40.4920    8.5038 C.2     1  UNL1        0.2555
      7 N          12.1278   40.8623    7.2455 N.am    1  UNL1       -0.2591
      8 O          11.9892   40.0395    9.4359 O.2     1  UNL1       -0.2696
      9 H          12.7435   41.2069    6.5589 H       1  UNL1        0.1571
     10 C          18.1774   44.0792    6.9862 C.3     1  UNL1        0.0343
     11 C          17.0628   43.1942    7.4131 C.ar    1  UNL1        0.0165
     12 C          15.7523   43.4196    6.9481 C.ar    1  UNL1        0.0978
     13 C          15.0040   41.5810    8.1853 C.ar    1  UNL1        0.1696
     14 C          14.1527   40.6401    8.7138 C.ar    1  UNL1        0.1103
     15 C          14.9746   39.8392    9.5094 C.ar    1  UNL1        0.1281
     16 C          17.2988   42.1225    8.2846 C.ar    1  UNL1        0.0993
     17 N          14.7287   42.6059    7.3407 N.ar    1  UNL1       -0.2251
     18 N          16.2487   40.3054    9.4380 N.ar    1  UNL1       -0.1619
     19 N          16.2400   41.3543    8.6347 N.ar    1  UNL1       -0.2108
     20 C           6.9073   40.2579    6.7385 C.3     1  UNL1        0.0592
     21 C           6.1948   41.4788    7.3158 C.3     1  UNL1        0.0334
     22 C           5.7693   41.3338    8.7504 C.ar    1  UNL1       -0.0188
     23 C           4.4414   40.9855    9.0164 C.ar    1  UNL1       -0.0041
     24 C           3.9974   40.8448   10.3339 C.ar    1  UNL1        0.0028
     25 C           4.8806   41.0541   11.3963 C.ar    1  UNL1        0.0369
     26 C           6.2107   41.4066   11.1489 C.ar    1  UNL1        0.1384
     27 C           6.6500   41.5481    9.8229 C.ar    1  UNL1        0.0326
     28 C           8.4858   41.6137   12.0960 C.3     1  UNL1        0.2525
     29 O           7.0712   41.6089   12.2313 O.3     1  UNL1       -0.4714
@<TRIPOS>BOND
     1    10    11    1
     2    11    12   ar
     3    13    17   ar
     4    14    15   ar
     5    14     6    1
     6     6     7   am
     7     1     5   ar
     8     2     5   ar
     9    20     2    1
    10    20    21    1
    11    21    22    1
    12    23    24   ar
    13    25    26   ar
    14    26    29    1
    15    27    22   ar
    16    28    29    1
    17    19    18   ar
    18    19    16   ar
    19    19    13   ar
    20     7     1    1
    21     3     4   ar
    22    12    17   ar
    23    13    14   ar
    24    15    18   ar
    25    16    11   ar
    26     6     8    2
    27     1     3   ar
    28     2     4   ar
    29    22    23   ar
    30    24    25   ar
    31    26    27   ar
    32     7     9    1
@<TRIPOS>MOLECULE
MolPort-008-289-815 19239352 MCULE-6904891206 PubChem-46971364 ZINC000019239352 ZINC19239352
 29 32 0 0 0
SMALL
GASTEIGER

@<TRIPOS>ATOM
      1 C          10.5205   41.3657    9.9467 C.ar    1  UNL1        0.1880
      2 C          12.8166   40.6749    9.9301 C.ar    1  UNL1        0.1127
      3 N          10.8359   40.5418   10.9687 N.ar    1  UNL1       -0.1256
      4 N          12.1118   40.1596   10.9607 N.ar    1  UNL1       -0.1440
      5 S          11.8584   41.6637    8.9602 S.2     1  UNL1       -0.0347
      6 C           8.5434   42.1475    8.5229 C.2     1  UNL1        0.2555
      7 N           9.2015   41.8961    9.7712 N.am    1  UNL1       -0.2591
      8 O           9.1174   41.9003    7.4288 O.2     1  UNL1       -0.2696
      9 H           8.6968   42.1092   10.5892 H       1  UNL1        0.1571
     10 C           2.5489   42.1369   11.5515 C.3     1  UNL1        0.0343
     11 C           3.8131   42.2460   10.7785 C.ar    1  UNL1        0.0165
     12 C           4.9459   41.4956   11.1503 C.ar    1  UNL1        0.0978
     13 C           6.1424   42.4328    9.3723 C.ar    1  UNL1        0.1696
     14 C           7.1821   42.7002    8.5139 C.ar    1  UNL1        0.1103
     15 C           6.6560   43.6289    7.6134 C.ar    1  UNL1        0.1281
     16 C           3.8974   43.0971    9.6683 C.ar    1  UNL1        0.0993
     17 N           6.1072   41.5964   10.4394 N.ar    1  UNL1       -0.2251
     18 N           5.3632   43.8826    7.9452 N.ar    1  UNL1       -0.1619
     19 N           5.0780   43.1504    9.0074 N.ar    1  UNL1       -0.2108
     20 C          14.2704   40.4199    9.7174 C.3     1  UNL1        0.0592
     21 C          14.6603   40.6865    8.2653 C.3     1  UNL1        0.0334
     22 C          15.6198   41.8282    8.0753 C.ar    1  UNL1       -0.0188
     23 C          16.8067   41.8270    8.8145 C.ar    1  UNL1       -0.0041
     24 C          17.7269   42.8697    8.6765 C.ar    1  UNL1        0.0028
     25 C          17.4640   43.9236    7.7975 C.ar    1  UNL1        0.0369
     26 C          16.2805   43.9428    7.0533 C.ar    1  UNL1        0.1384
     27 C          15.3594   42.8932    7.1980 C.ar    1  UNL1        0.0326
     28 C          14.7958   45.2094    5.5343 C.3     1  UNL1        0.2525
     29 O          16.0450   45.0095    6.1817 O.3     1  UNL1       -0.4714
@<TRIPOS>BOND
     1    10    11    1
     2    11    12   ar
     3    13    17   ar
     4    14    15   ar
     5    14     6    1
     6     6     7   am
     7     1     5   ar
     8     2     5   ar
     9    20     2    1
    10    20    21    1
    11    21    22    1
    12    23    24   ar
    13    25    26   ar
    14    26    29    1
    15    27    22   ar
    16    28    29    1
    17    19    18   ar
    18    19    16   ar
    19    19    13   ar
    20     7     1    1
    21     3     4   ar
    22    12    17   ar
    23    13    14   ar
    24    15    18   ar
    25    16    11   ar
    26     6     8    2
    27     1     3   ar
    28     2     4   ar
    29    22    23   ar
    30    24    25   ar
    31    26    27   ar
    32     7     9    1
@<TRIPOS>MOLECULE
MolPort-008-289-815 19239352 MCULE-6904891206 PubChem-46971364 ZINC000019239352 ZINC19239352
 29 32 0 0 0
SMALL
GASTEIGER

@<TRIPOS>ATOM
      1 C          11.6667   39.6771    9.9470 C.ar    1  UNL1        0.1880
      2 C          13.9454   39.1728    9.3965 C.ar    1  UNL1        0.1127
      3 N          11.8019   39.0590    8.7544 N.ar    1  UNL1       -0.1256
      4 N          13.0674   38.7770    8.4494 N.ar    1  UNL1       -0.1440
      5 S          13.1631   39.9045   10.6963 S.2     1  UNL1       -0.0347
      6 C           9.6212   41.2093   10.0728 C.2     1  UNL1        0.2555
      7 N          10.3895   40.0651   10.4668 N.am    1  UNL1       -0.2591
      8 O          10.0446   41.9973    9.1855 O.2     1  UNL1       -0.2696
      9 H          10.0008   39.4887   11.1638 H       1  UNL1        0.1571
     10 C           2.9678   41.4197    9.1817 C.3     1  UNL1        0.0343
     11 C           4.4119   41.4165    9.5311 C.ar    1  UNL1        0.0165
     12 C           5.3813   41.0875    8.5633 C.ar    1  UNL1        0.0978
     13 C           7.0672   41.4050   10.1533 C.ar    1  UNL1        0.1696
     14 C           8.3227   41.4706   10.7089 C.ar    1  UNL1        0.1103
     15 C           8.0945   41.8463   12.0343 C.ar    1  UNL1        0.1281
     16 C           4.8310   41.7406   10.8285 C.ar    1  UNL1        0.0993
     17 N           6.7082   41.0849    8.8852 N.ar    1  UNL1       -0.2251
     18 N           6.7576   41.9901   12.2288 N.ar    1  UNL1       -0.1619
     19 N           6.1611   41.7189   11.0815 N.ar    1  UNL1       -0.2108
     20 C          15.4162   38.9457    9.3026 C.3     1  UNL1        0.0592
     21 C          16.1858   40.1679    9.7982 C.3     1  UNL1        0.0334
     22 C          16.2330   41.3134    8.8257 C.ar    1  UNL1       -0.0188
     23 C          17.4083   42.0669    8.7450 C.ar    1  UNL1       -0.0041
     24 C          17.4979   43.1449    7.8603 C.ar    1  UNL1        0.0028
     25 C          16.4093   43.4780    7.0501 C.ar    1  UNL1        0.0369
     26 C          15.2252   42.7379    7.1204 C.ar    1  UNL1        0.1384
     27 C          15.1410   41.6572    8.0127 C.ar    1  UNL1        0.0326
     28 C          12.9163   42.3944    6.3039 C.3     1  UNL1        0.2525
     29 O          14.1533   43.0939    6.2975 O.3     1  UNL1       -0.4714
@<TRIPOS>BOND
     1    10    11    1
     2    11    12   ar
     3    13    17   ar
     4    14    15   ar
     5    14     6    1
     6     6     7   am
     7     1     5   ar
     8     2     5   ar
     9    20     2    1
    10    20    21    1
    11    21    22    1
    12    23    24   ar
    13    25    26   ar
    14    26    29    1
    15    27    22   ar
    16    28    29    1
    17    19    18   ar
    18    19    16   ar
    19    19    13   ar
    20     7     1    1
    21     3     4   ar
    22    12    17   ar
    23    13    14   ar
    24    15    18   ar
    25    16    11   ar
    26     6     8    2
    27     1     3   ar
    28     2     4   ar
    29    22    23   ar
    30    24    25   ar
    31    26    27   ar
    32     7     9    1
@<TRIPOS>MOLECULE
MolPort-008-289-815 19239352 MCULE-6904891206 PubChem-46971364 ZINC000019239352 ZINC19239352
 29 32 0 0 0
SMALL
GASTEIGER

@<TRIPOS>ATOM
      1 C          11.0242   40.9031    6.7261 C.ar    1  UNL1        0.1880
      2 C           8.6697   40.7531    6.2975 C.ar    1  UNL1        0.1127
      3 N          10.7249   40.8496    5.4106 N.ar    1  UNL1       -0.1256
      4 N           9.4170   40.7684    5.1724 N.ar    1  UNL1       -0.1440
      5 S           9.6299   40.8513    7.6777 S.2     1  UNL1       -0.0347
      6 C          12.9543   40.2395    8.2694 C.2     1  UNL1        0.2555
      7 N          12.3726   40.9968    7.2004 N.am    1  UNL1       -0.2591
      8 O          12.2753   39.3860    8.9003 O.2     1  UNL1       -0.2696
      9 H          12.9580   41.6457    6.7471 H       1  UNL1        0.1571
     10 C          18.3427   44.1634    7.4481 C.3     1  UNL1        0.0343
     11 C          17.2413   43.2063    7.7281 C.ar    1  UNL1        0.0165
     12 C          15.9766   43.3765    7.1313 C.ar    1  UNL1        0.0978
     13 C          15.2074   41.4601    8.2299 C.ar    1  UNL1        0.1696
     14 C          14.3598   40.4578    8.6378 C.ar    1  UNL1        0.1103
     15 C          15.1371   39.6760    9.4948 C.ar    1  UNL1        0.1281
     16 C          17.4442   42.1202    8.5902 C.ar    1  UNL1        0.0993
     17 N          14.9651   42.4964    7.3891 N.ar    1  UNL1       -0.2251
     18 N          16.3830   40.2119    9.5736 N.ar    1  UNL1       -0.1619
     19 N          16.3998   41.2851    8.8032 N.ar    1  UNL1       -0.2108
     20 C           7.1796   40.6959    6.2957 C.3     1  UNL1        0.0592
     21 C           6.6381   40.6371    7.7223 C.3     1  UNL1        0.0334
     22 C           5.7507   41.7897    8.1020 C.ar    1  UNL1       -0.0188
     23 C           6.0508   43.0551    7.5882 C.ar    1  UNL1       -0.0041
     24 C           5.2586   44.1582    7.9174 C.ar    1  UNL1        0.0028
     25 C           4.1597   44.0024    8.7663 C.ar    1  UNL1        0.0369
     26 C           3.8472   42.7452    9.2921 C.ar    1  UNL1        0.1384
     27 C           4.6483   41.6414    8.9589 C.ar    1  UNL1        0.0326
     28 C           2.8285   42.0391   11.4321 C.3     1  UNL1        0.2525
     29 O           2.7419   42.6197   10.1380 O.3     1  UNL1       -0.4714
@<TRIPOS>BOND
     1    10    11    1
     2    11    12   ar
     3    13    17   ar
     4    14    15   ar
     5    14     6    1
     6     6     7   am
     7     1     5   ar
     8     2     5   ar
     9    20     2    1
    10    20    21    1
    11    21    22    1
    12    23    24   ar
    13    25    26   ar
    14    26    29    1
    15    27    22   ar
    16    28    29    1
    17    19    18   ar
    18    19    16   ar
    19    19    13   ar
    20     7     1    1
    21     3     4   ar
    22    12    17   ar
    23    13    14   ar
    24    15    18   ar
    25    16    11   ar
    26     6     8    2
    27     1     3   ar
    28     2     4   ar
    29    22    23   ar
    30    24    25   ar
    31    26    27   ar
    32     7     9    1
@<TRIPOS>MOLECULE
MolPort-008-289-815 19239352 MCULE-6904891206 PubChem-46971364 ZINC000019239352 ZINC19239352
 29 32 0 0 0
SMALL
GASTEIGER

@<TRIPOS>ATOM
      1 C           9.9142   40.9868   10.1952 C.ar    1  UNL1        0.1880
      2 C          12.2641   40.5227   10.0840 C.ar    1  UNL1        0.1127
      3 N          10.4475   40.6502   11.3890 N.ar    1  UNL1       -0.1256
      4 N          11.7531   40.3944   11.3277 N.ar    1  UNL1       -0.1440
      5 S          11.0821   40.9813    8.9753 S.2     1  UNL1       -0.0347
      6 C           7.5507   41.3959   11.0864 C.2     1  UNL1        0.2555
      7 N           8.5260   41.3044   10.0400 N.am    1  UNL1       -0.2591
      8 O           7.8714   41.1925   12.2878 O.2     1  UNL1       -0.2696
      9 H           8.2105   41.4770    9.1235 H       1  UNL1        0.1571
     10 C           3.5228   45.2124    7.3027 C.3     1  UNL1        0.0343
     11 C           4.2803   44.3051    8.2031 C.ar    1  UNL1        0.0165
     12 C           5.6890   44.3044    8.1978 C.ar    1  UNL1        0.0978
     13 C           5.6882   42.6472    9.8484 C.ar    1  UNL1        0.1696
     14 C           6.1582   41.7309   10.7589 C.ar    1  UNL1        0.1103
     15 C           5.0047   41.1757   11.3166 C.ar    1  UNL1        0.1281
     16 C           3.6046   43.4366    9.0709 C.ar    1  UNL1        0.0993
     17 N           6.3843   43.4705    9.0256 N.ar    1  UNL1       -0.2251
     18 N           3.9157   41.7535   10.7458 N.ar    1  UNL1       -0.1619
     19 N           4.3537   42.6358    9.8653 N.ar    1  UNL1       -0.2108
     20 C          13.7054   40.3180    9.7605 C.3     1  UNL1        0.0592
     21 C          13.9975   40.7134    8.3149 C.3     1  UNL1        0.0334
     22 C          15.1576   41.6547    8.1466 C.ar    1  UNL1       -0.0188
     23 C          16.3377   41.3847    8.8465 C.ar    1  UNL1       -0.0041
     24 C          17.4410   42.2340    8.7268 C.ar    1  UNL1        0.0028
     25 C          17.3700   43.3624    7.9058 C.ar    1  UNL1        0.0369
     26 C          16.1967   43.6497    7.2017 C.ar    1  UNL1        0.1384
     27 C          15.0912   42.7934    7.3277 C.ar    1  UNL1        0.0326
     28 C          15.0078   45.1437    5.6299 C.3     1  UNL1        0.2525
     29 O          16.1552   44.7850    6.3878 O.3     1  UNL1       -0.4714
@<TRIPOS>BOND
     1    10    11    1
     2    11    12   ar
     3    13    17   ar
     4    14    15   ar
     5    14     6    1
     6     6     7   am
     7     1     5   ar
     8     2     5   ar
     9    20     2    1
    10    20    21    1
    11    21    22    1
    12    23    24   ar
    13    25    26   ar
    14    26    29    1
    15    27    22   ar
    16    28    29    1
    17    19    18   ar
    18    19    16   ar
    19    19    13   ar
    20     7     1    1
    21     3     4   ar
    22    12    17   ar
    23    13    14   ar
    24    15    18   ar
    25    16    11   ar
    26     6     8    2
    27     1     3   ar
    28     2     4   ar
    29    22    23   ar
    30    24    25   ar
    31    26    27   ar
    32     7     9    1
@<TRIPOS>MOLECULE
MolPort-008-289-815 19239352 MCULE-6904891206 PubChem-46971364 ZINC000019239352 ZINC19239352
 29 32 0 0 0
SMALL
GASTEIGER

@<TRIPOS>ATOM
      1 C          10.7243   40.7818    6.7668 C.ar    1  UNL1        0.1880
      2 C           8.3835   40.4129    6.3996 C.ar    1  UNL1        0.1127
      3 N          10.2395   41.4567    5.7027 N.ar    1  UNL1       -0.1256
      4 N           8.9389   41.2535    5.4999 N.ar    1  UNL1       -0.1440
      5 S           9.5165   39.8765    7.5245 S.2     1  UNL1       -0.0347
      6 C          12.6523   40.4310    8.4122 C.2     1  UNL1        0.2555
      7 N          12.0985   40.8633    7.1627 N.am    1  UNL1       -0.2591
      8 O          11.9205   39.9161    9.2994 O.2     1  UNL1       -0.2696
      9 H          12.7249   41.2550    6.5120 H       1  UNL1        0.1571
     10 C          18.1334   44.0852    7.1045 C.3     1  UNL1        0.0343
     11 C          17.0148   43.1849    7.4864 C.ar    1  UNL1        0.0165
     12 C          15.7163   43.4059    6.9868 C.ar    1  UNL1        0.0978
     13 C          14.9488   41.5436    8.1758 C.ar    1  UNL1        0.1696
     14 C          14.0909   40.5881    8.6661 C.ar    1  UNL1        0.1103
     15 C          14.8965   39.7828    9.4739 C.ar    1  UNL1        0.1281
     16 C          17.2349   42.1028    8.3492 C.ar    1  UNL1        0.0993
     17 N          14.6889   42.5781    7.3381 N.ar    1  UNL1       -0.2251
     18 N          16.1679   40.2606    9.4460 N.ar    1  UNL1       -0.1619
     19 N          16.1732   41.3208    8.6576 N.ar    1  UNL1       -0.2108
     20 C           6.9375   40.0487    6.4033 C.3     1  UNL1        0.0592
     21 C           6.2495   40.5752    7.6607 C.3     1  UNL1        0.0334
     22 C           6.6694   41.9595    8.0698 C.ar    1  UNL1       -0.0188
     23 C           6.1419   43.0474    7.3672 C.ar    1  UNL1       -0.0041
     24 C           6.5070   44.3529    7.7068 C.ar    1  UNL1        0.0028
     25 C           7.4057   44.5788    8.7526 C.ar    1  UNL1        0.0369
     26 C           7.9458   43.5027    9.4633 C.ar    1  UNL1        0.1384
     27 C           7.5763   42.1935    9.1159 C.ar    1  UNL1        0.0326
     28 C          10.2125   43.3891   10.4457 C.3     1  UNL1        0.2525
     29 O           8.8418   43.7593   10.5047 O.3     1  UNL1       -0.4714
@<TRIPOS>BOND
     1    10    11    1
     2    11    12   ar
     3    13    17   ar
     4    14    15   ar
     5    14     6    1
     6     6     7   am
     7     1     5   ar
     8     2     5   ar
     9    20     2    1
    10    20    21    1
    11    21    22    1
    12    23    24   ar
    13    25    26   ar
    14    26    29    1
    15    27    22   ar
    16    28    29    1
    17    19    18   ar
    18    19    16   ar
    19    19    13   ar
    20     7     1    1
    21     3     4   ar
    22    12    17   ar
    23    13    14   ar
    24    15    18   ar
    25    16    11   ar
    26     6     8    2
    27     1     3   ar
    28     2     4   ar
    29    22    23   ar
    30    24    25   ar
    31    26    27   ar
    32     7     9    1
