@<TRIPOS>MOLECULE
MolPort-035-395-044 96125881 LN01331276 MCULE-9613971028 PubChem-14488320 ZINC000096125881 ZINC96125881
 20 20 0 0 0
SMALL
GASTEIGER

@<TRIPOS>ATOM
      1 C          10.3602   41.4784    7.0563 C.ar    1  UNL1        0.2224
      2 C          12.3205   42.2799    7.0900 C.ar    1  UNL1        0.1559
      3 C          12.1377   41.7091    5.8441 C.ar    1  UNL1        0.1122
      4 C          10.2759   40.5138    4.7251 C.3     1  UNL1        0.1322
      5 N          11.2198   42.1427    7.8550 N.ar    1  UNL1       -0.2058
      6 N          10.8922   41.2081    5.8436 N.ar    1  UNL1       -0.3020
      7 C          14.5341   43.4876    6.7208 C.2     1  UNL1        0.4063
      8 O          14.4518   43.4152    5.4640 O.2     1  UNL1       -0.2261
      9 N          13.5047   42.9403    7.5519 N.am    1  UNL1       -0.2338
     10 H          13.6209   43.0253    8.5258 H       1  UNL1        0.1597
     11 O          15.6352   44.1056    7.3289 O.3     1  UNL1       -0.4417
     12 C          16.8257   43.4266    7.7364 C.3     1  UNL1        0.1378
     13 C          16.4684   42.0030    8.1072 C.3     1  UNL1        0.0437
     14 C          17.4394   44.0997    8.9518 C.3     1  UNL1        0.0437
     15 C          17.8371   43.3882    6.6037 C.3     1  UNL1        0.0437
     16 C           9.0032   41.1074    7.4944 C.2     1  UNL1        0.3760
     17 O           8.1021   41.9834    7.6002 O.2     1  UNL1       -0.2415
     18 O           8.7255   39.7716    7.7909 O.3     1  UNL1       -0.4434
     19 C           6.9143   39.4126    6.2625 C.3     1  UNL1        0.0513
     20 C           8.2181   38.8750    6.8139 C.3     1  UNL1        0.2090
@<TRIPOS>BOND
     1    19    20    1
     2    20    18    1
     3    16    18    1
     4    16     1    1
     5     2     5   ar
     6     2     9    1
     7     7    11    1
     8    12    11    1
     9    12    13    1
    10    12    14    1
    11    12    15    1
    12     3     6   ar
    13     4     6    1
    14     9     7   am
    15     6     1   ar
    16    16    17    2
    17     1     5   ar
    18     2     3   ar
    19     7     8    2
    20     9    10    1
@<TRIPOS>MOLECULE
MolPort-035-395-044 96125881 LN01331276 MCULE-9613971028 PubChem-14488320 ZINC000096125881 ZINC96125881
 20 20 0 0 0
SMALL
GASTEIGER

@<TRIPOS>ATOM
      1 C          10.2917   41.4296    7.0223 C.ar    1  UNL1        0.2224
      2 C          12.2810   42.1548    7.0787 C.ar    1  UNL1        0.1559
      3 C          12.1205   41.5064    5.8682 C.ar    1  UNL1        0.1122
      4 C          10.2531   40.3093    4.7605 C.3     1  UNL1        0.1322
      5 N          11.1481   42.1140    7.8072 N.ar    1  UNL1       -0.2058
      6 N          10.8561   41.0552    5.8527 N.ar    1  UNL1       -0.3020
      7 C          14.4562   43.4314    6.7132 C.2     1  UNL1        0.4063
      8 O          14.3193   43.4581    5.4593 O.2     1  UNL1       -0.2261
      9 N          13.4737   42.7994    7.5410 N.am    1  UNL1       -0.2338
     10 H          13.6317   42.8085    8.5127 H       1  UNL1        0.1597
     11 O          15.5731   44.0204    7.3212 O.3     1  UNL1       -0.4417
     12 C          16.7708   43.3219    7.6708 C.3     1  UNL1        0.1378
     13 C          17.4774   44.0909    8.7669 C.3     1  UNL1        0.0437
     14 C          17.7035   43.2226    6.4761 C.3     1  UNL1        0.0437
     15 C          16.4499   41.9312    8.1905 C.3     1  UNL1        0.0437
     16 C           8.9054   41.1429    7.4307 C.2     1  UNL1        0.3760
     17 O           8.5916   40.0068    7.8797 O.2     1  UNL1       -0.2415
     18 O           7.9409   42.1458    7.3155 O.3     1  UNL1       -0.4434
     19 C           7.7789   42.7947    9.6173 C.3     1  UNL1        0.0513
     20 C           7.9161   43.2678    8.1854 C.3     1  UNL1        0.2090
@<TRIPOS>BOND
     1    19    20    1
     2    20    18    1
     3    16    18    1
     4    16     1    1
     5     2     5   ar
     6     2     9    1
     7     7    11    1
     8    12    11    1
     9    12    13    1
    10    12    14    1
    11    12    15    1
    12     3     6   ar
    13     4     6    1
    14     9     7   am
    15     6     1   ar
    16    16    17    2
    17     1     5   ar
    18     2     3   ar
    19     7     8    2
    20     9    10    1
@<TRIPOS>MOLECULE
MolPort-035-395-044 96125881 LN01331276 MCULE-9613971028 PubChem-14488320 ZINC000096125881 ZINC96125881
 20 20 0 0 0
SMALL
GASTEIGER

@<TRIPOS>ATOM
      1 C          10.1059   41.4425    7.9096 C.ar    1  UNL1        0.2224
      2 C          12.1990   41.2484    7.6493 C.ar    1  UNL1        0.1559
      3 C          11.6136   40.1420    7.0623 C.ar    1  UNL1        0.1122
      4 C           9.2843   39.3424    6.7751 C.3     1  UNL1        0.1322
      5 N          11.2698   42.0667    8.1810 N.ar    1  UNL1       -0.2058
      6 N          10.2902   40.2841    7.2381 N.ar    1  UNL1       -0.3020
      7 C          14.3361   42.3206    6.7672 C.2     1  UNL1        0.4063
      8 O          13.7562   42.8418    5.7755 O.2     1  UNL1       -0.2261
      9 N          13.6020   41.5308    7.7092 N.am    1  UNL1       -0.2338
     10 H          14.1054   41.1484    8.4639 H       1  UNL1        0.1597
     11 O          15.7111   42.5043    6.9670 O.3     1  UNL1       -0.4417
     12 C          16.3989   43.7456    6.7924 C.3     1  UNL1        0.1378
     13 C          17.0168   44.1470    8.1149 C.3     1  UNL1        0.0437
     14 C          15.4356   44.8380    6.3613 C.3     1  UNL1        0.0437
     15 C          17.5101   43.6048    5.7665 C.3     1  UNL1        0.0437
     16 C           8.8018   41.9941    8.3169 C.2     1  UNL1        0.3760
     17 O           8.2242   42.8632    7.6087 O.2     1  UNL1       -0.2415
     18 O           8.2110   41.5418    9.4984 O.3     1  UNL1       -0.4434
     19 C           6.4508   41.5289   11.1254 C.3     1  UNL1        0.0513
     20 C           6.8015   41.4689    9.6535 C.3     1  UNL1        0.2090
@<TRIPOS>BOND
     1    19    20    1
     2    20    18    1
     3    16    18    1
     4    16     1    1
     5     2     5   ar
     6     2     9    1
     7     7    11    1
     8    12    11    1
     9    12    13    1
    10    12    14    1
    11    12    15    1
    12     3     6   ar
    13     4     6    1
    14     9     7   am
    15     6     1   ar
    16    16    17    2
    17     1     5   ar
    18     2     3   ar
    19     7     8    2
    20     9    10    1
@<TRIPOS>MOLECULE
MolPort-035-395-044 96125881 LN01331276 MCULE-9613971028 PubChem-14488320 ZINC000096125881 ZINC96125881
 20 20 0 0 0
SMALL
GASTEIGER

@<TRIPOS>ATOM
      1 C          15.5673   42.0229    7.9673 C.ar    1  UNL1        0.2224
      2 C          13.5374   41.5516    7.5885 C.ar    1  UNL1        0.1559
      3 C          13.7910   42.7675    6.9812 C.ar    1  UNL1        0.1122
      4 C          15.7752   44.2404    6.7791 C.3     1  UNL1        0.1322
      5 N          14.6367   41.0771    8.2065 N.ar    1  UNL1       -0.2058
      6 N          15.0797   43.0474    7.2328 N.ar    1  UNL1       -0.3020
      7 C          11.1959   41.0893    8.4821 C.2     1  UNL1        0.4063
      8 O          11.2760   41.9809    9.3710 O.2     1  UNL1       -0.2261
      9 N          12.2883   40.8505    7.5879 N.am    1  UNL1       -0.2338
     10 H          12.1707   40.1426    6.9139 H       1  UNL1        0.1597
     11 O          10.0354   40.3144    8.3519 O.3     1  UNL1       -0.4417
     12 C           8.8959   40.6825    7.5705 C.3     1  UNL1        0.1378
     13 C           8.4494   39.4786    6.7685 C.3     1  UNL1        0.0437
     14 C           9.2454   41.8006    6.6037 C.3     1  UNL1        0.0437
     15 C           7.7476   41.1159    8.4654 C.3     1  UNL1        0.0437
     16 C          16.9487   41.9144    8.4684 C.2     1  UNL1        0.3760
     17 O          17.9158   42.3369    7.7780 O.2     1  UNL1       -0.2415
     18 O          17.1751   41.3378    9.7197 O.3     1  UNL1       -0.4434
     19 C          18.1811   39.2779   10.4198 C.3     1  UNL1        0.0513
     20 C          16.9082   39.9667    9.9745 C.3     1  UNL1        0.2090
@<TRIPOS>BOND
     1    19    20    1
     2    20    18    1
     3    16    18    1
     4    16     1    1
     5     2     5   ar
     6     2     9    1
     7     7    11    1
     8    12    11    1
     9    12    13    1
    10    12    14    1
    11    12    15    1
    12     3     6   ar
    13     4     6    1
    14     9     7   am
    15     6     1   ar
    16    16    17    2
    17     1     5   ar
    18     2     3   ar
    19     7     8    2
    20     9    10    1
@<TRIPOS>MOLECULE
MolPort-035-395-044 96125881 LN01331276 MCULE-9613971028 PubChem-14488320 ZINC000096125881 ZINC96125881
 20 20 0 0 0
SMALL
GASTEIGER

@<TRIPOS>ATOM
      1 C          13.8853   41.2798    7.9435 C.ar    1  UNL1        0.2224
      2 C          12.1484   41.8949    6.8990 C.ar    1  UNL1        0.1559
      3 C          13.1841   42.7072    6.4763 C.ar    1  UNL1        0.1122
      4 C          15.5981   42.8841    7.0136 C.3     1  UNL1        0.1322
      5 N          12.5725   41.0009    7.8136 N.ar    1  UNL1       -0.2058
      6 N          14.2731   42.3019    7.1488 N.ar    1  UNL1       -0.3020
      7 C          10.0029   40.8453    6.0100 C.2     1  UNL1        0.4063
      8 O          10.4910   39.6822    5.9866 O.2     1  UNL1       -0.2261
      9 N          10.7887   41.9573    6.4528 N.am    1  UNL1       -0.2338
     10 H          10.3568   42.8420    6.4503 H       1  UNL1        0.1597
     11 O           8.6811   41.0724    5.6030 O.3     1  UNL1       -0.4417
     12 C           7.5595   41.1431    6.4869 C.3     1  UNL1        0.1378
     13 C           8.0520   40.9761    7.9087 C.3     1  UNL1        0.0437
     14 C           6.5688   40.0311    6.1883 C.3     1  UNL1        0.0437
     15 C           6.8695   42.4915    6.3731 C.3     1  UNL1        0.0437
     16 C          14.7633   40.5314    8.8600 C.2     1  UNL1        0.3760
     17 O          15.9715   40.8633    9.0037 O.2     1  UNL1       -0.2415
     18 O          14.2410   39.4485    9.5698 O.3     1  UNL1       -0.4434
     19 C          14.8281   38.8052   11.8030 C.3     1  UNL1        0.0513
     20 C          13.8483   39.5606   10.9297 C.3     1  UNL1        0.2090
@<TRIPOS>BOND
     1    19    20    1
     2    20    18    1
     3    16    18    1
     4    16     1    1
     5     2     5   ar
     6     2     9    1
     7     7    11    1
     8    12    11    1
     9    12    13    1
    10    12    14    1
    11    12    15    1
    12     3     6   ar
    13     4     6    1
    14     9     7   am
    15     6     1   ar
    16    16    17    2
    17     1     5   ar
    18     2     3   ar
    19     7     8    2
    20     9    10    1
@<TRIPOS>MOLECULE
MolPort-035-395-044 96125881 LN01331276 MCULE-9613971028 PubChem-14488320 ZINC000096125881 ZINC96125881
 20 20 0 0 0
SMALL
GASTEIGER

@<TRIPOS>ATOM
      1 C          15.0272   39.1678   10.0745 C.ar    1  UNL1        0.2224
      2 C          13.9452   40.4271    8.7593 C.ar    1  UNL1        0.1559
      3 C          15.2388   40.9121    8.8115 C.ar    1  UNL1        0.1122
      4 C          17.3097   40.2432    9.9994 C.3     1  UNL1        0.1322
      5 N          13.8004   39.3400    9.5421 N.ar    1  UNL1       -0.2058
      6 N          15.9062   40.1019    9.6486 N.ar    1  UNL1       -0.3020
      7 C          11.7208   41.6476    8.5193 C.2     1  UNL1        0.4063
      8 O          11.5867   41.8072    9.7635 O.2     1  UNL1       -0.2261
      9 N          12.8678   40.9737    7.9897 N.am    1  UNL1       -0.2338
     10 H          12.9205   40.8776    7.0113 H       1  UNL1        0.1597
     11 O          10.7495   42.1271    7.6300 O.3     1  UNL1       -0.4417
     12 C           9.8176   41.3044    6.9234 C.3     1  UNL1        0.1378
     13 C           8.5048   42.0494    6.8073 C.3     1  UNL1        0.0437
     14 C           9.5688   40.0074    7.6738 C.3     1  UNL1        0.0437
     15 C          10.3225   41.0004    5.5235 C.3     1  UNL1        0.0437
     16 C          15.3334   38.0727   11.0114 C.2     1  UNL1        0.3760
     17 O          15.4250   38.2953   12.2493 O.2     1  UNL1       -0.2415
     18 O          15.5206   36.7824   10.5118 O.3     1  UNL1       -0.4434
     19 C          15.1272   35.9254    8.3081 C.3     1  UNL1        0.0513
     20 C          16.1344   36.5456    9.2536 C.3     1  UNL1        0.2090
@<TRIPOS>BOND
     1    19    20    1
     2    20    18    1
     3    16    18    1
     4    16     1    1
     5     2     5   ar
     6     2     9    1
     7     7    11    1
     8    12    11    1
     9    12    13    1
    10    12    14    1
    11    12    15    1
    12     3     6   ar
    13     4     6    1
    14     9     7   am
    15     6     1   ar
    16    16    17    2
    17     1     5   ar
    18     2     3   ar
    19     7     8    2
    20     9    10    1
@<TRIPOS>MOLECULE
MolPort-035-395-044 96125881 LN01331276 MCULE-9613971028 PubChem-14488320 ZINC000096125881 ZINC96125881
 20 20 0 0 0
SMALL
GASTEIGER

@<TRIPOS>ATOM
      1 C          13.7960   41.5890    7.8503 C.ar    1  UNL1        0.2224
      2 C          11.6936   41.4236    7.6536 C.ar    1  UNL1        0.1559
      3 C          12.1367   42.2162    6.6111 C.ar    1  UNL1        0.1122
      4 C          14.3497   43.0536    5.8702 C.3     1  UNL1        0.1322
      5 N          12.7183   41.0262    8.4331 N.ar    1  UNL1       -0.2058
      6 N          13.4685   42.3085    6.7540 N.ar    1  UNL1       -0.3020
      7 C           9.5899   40.0624    7.1880 C.2     1  UNL1        0.4063
      8 O          10.1160   39.4348    6.2284 O.2     1  UNL1       -0.2261
      9 N          10.3358   41.0474    7.9116 N.am    1  UNL1       -0.2338
     10 H           9.8752   41.5061    8.6510 H       1  UNL1        0.1597
     11 O           8.2644   39.8079    7.5653 O.3     1  UNL1       -0.4417
     12 C           7.1374   40.5818    7.1467 C.3     1  UNL1        0.1378
     13 C           7.6342   41.7672    6.3466 C.3     1  UNL1        0.0437
     14 C           6.3666   41.1023    8.3476 C.3     1  UNL1        0.0437
     15 C           6.2176   39.7574    6.2626 C.3     1  UNL1        0.0437
     16 C          15.1597   41.4153    8.3804 C.2     1  UNL1        0.3760
     17 O          15.5298   40.3026    8.8447 O.2     1  UNL1       -0.2415
     18 O          16.0399   42.4989    8.3620 O.3     1  UNL1       -0.4434
     19 C          18.1141   43.6658    8.0757 C.3     1  UNL1        0.0513
     20 C          17.4468   42.3229    8.2870 C.3     1  UNL1        0.2090
@<TRIPOS>BOND
     1    19    20    1
     2    20    18    1
     3    16    18    1
     4    16     1    1
     5     2     5   ar
     6     2     9    1
     7     7    11    1
     8    12    11    1
     9    12    13    1
    10    12    14    1
    11    12    15    1
    12     3     6   ar
    13     4     6    1
    14     9     7   am
    15     6     1   ar
    16    16    17    2
    17     1     5   ar
    18     2     3   ar
    19     7     8    2
    20     9    10    1
@<TRIPOS>MOLECULE
MolPort-035-395-044 96125881 LN01331276 MCULE-9613971028 PubChem-14488320 ZINC000096125881 ZINC96125881
 20 20 0 0 0
SMALL
GASTEIGER

@<TRIPOS>ATOM
      1 C          14.4624   40.3165    8.8280 C.ar    1  UNL1        0.2224
      2 C          12.8473   40.7660    7.5336 C.ar    1  UNL1        0.1559
      3 C          13.8239   41.7183    7.3084 C.ar    1  UNL1        0.1122
      4 C          16.0803   42.1614    8.2355 C.3     1  UNL1        0.1322
      5 N          13.2332   39.8864    8.4786 N.ar    1  UNL1       -0.2058
      6 N          14.8362   41.4162    8.1368 N.ar    1  UNL1       -0.3020
      7 C          10.2995   40.8176    7.5047 C.2     1  UNL1        0.4063
      8 O          10.2133   41.0267    8.7459 O.2     1  UNL1       -0.2261
      9 N          11.5782   40.6842    6.8745 N.am    1  UNL1       -0.2338
     10 H          11.5858   40.5220    5.9035 H       1  UNL1        0.1597
     11 O           9.1448   40.7119    6.7175 O.3     1  UNL1       -0.4417
     12 C           8.5954   39.4805    6.2419 C.3     1  UNL1        0.1378
     13 C           9.0531   38.3619    7.1535 C.3     1  UNL1        0.0437
     14 C           9.0826   39.1825    4.8344 C.3     1  UNL1        0.0437
     15 C           7.0772   39.5257    6.2624 C.3     1  UNL1        0.0437
     16 C          15.2738   39.6365    9.8528 C.2     1  UNL1        0.3760
     17 O          14.8308   39.4839   11.0237 O.2     1  UNL1       -0.2415
     18 O          16.5415   39.1610    9.5117 O.3     1  UNL1       -0.4434
     19 C          18.3906   38.2309   10.7205 C.3     1  UNL1        0.0513
     20 C          17.6977   39.4976   10.2640 C.3     1  UNL1        0.2090
@<TRIPOS>BOND
     1    19    20    1
     2    20    18    1
     3    16    18    1
     4    16     1    1
     5     2     5   ar
     6     2     9    1
     7     7    11    1
     8    12    11    1
     9    12    13    1
    10    12    14    1
    11    12    15    1
    12     3     6   ar
    13     4     6    1
    14     9     7   am
    15     6     1   ar
    16    16    17    2
    17     1     5   ar
    18     2     3   ar
    19     7     8    2
    20     9    10    1
@<TRIPOS>MOLECULE
MolPort-035-395-044 96125881 LN01331276 MCULE-9613971028 PubChem-14488320 ZINC000096125881 ZINC96125881
 20 20 0 0 0
SMALL
GASTEIGER

@<TRIPOS>ATOM
      1 C           9.5540   41.9881    8.3285 C.ar    1  UNL1        0.2224
      2 C           7.5799   41.8776    9.0883 C.ar    1  UNL1        0.1559
      3 C           7.4872   41.8208    7.7101 C.ar    1  UNL1        0.1122
      4 C           9.1199   41.8674    5.8448 C.3     1  UNL1        0.1322
      5 N           8.8630   41.9820    9.4864 N.ar    1  UNL1       -0.2058
      6 N           8.7461   41.8924    7.2492 N.ar    1  UNL1       -0.3020
      7 C           5.3859   42.7505   10.0470 C.2     1  UNL1        0.4063
      8 O           5.3139   43.7006    9.2202 O.2     1  UNL1       -0.2261
      9 N           6.4859   41.8346   10.0119 N.am    1  UNL1       -0.2338
     10 H           6.4906   41.1123   10.6808 H       1  UNL1        0.1597
     11 O           4.3901   42.5724   11.0170 O.3     1  UNL1       -0.4417
     12 C           3.3735   41.5683   10.9631 C.3     1  UNL1        0.1378
     13 C           2.9226   41.4123    9.5264 C.3     1  UNL1        0.0437
     14 C           2.1734   41.9729   11.8017 C.3     1  UNL1        0.0437
     15 C           3.9115   40.2322   11.4453 C.3     1  UNL1        0.0437
     16 C          11.0233   42.0899    8.2878 C.2     1  UNL1        0.3760
     17 O          11.6386   42.8152    9.1161 O.2     1  UNL1       -0.2415
     18 O          11.7284   41.3718    7.3201 O.3     1  UNL1       -0.4434
     19 C          11.3558   39.2536    6.2618 C.3     1  UNL1        0.0513
     20 C          11.9658   39.9774    7.4437 C.3     1  UNL1        0.2090
@<TRIPOS>BOND
     1    19    20    1
     2    20    18    1
     3    16    18    1
     4    16     1    1
     5     2     5   ar
     6     2     9    1
     7     7    11    1
     8    12    11    1
     9    12    13    1
    10    12    14    1
    11    12    15    1
    12     3     6   ar
    13     4     6    1
    14     9     7   am
    15     6     1   ar
    16    16    17    2
    17     1     5   ar
    18     2     3   ar
    19     7     8    2
    20     9    10    1
@<TRIPOS>MOLECULE
MolPort-035-395-044 96125881 LN01331276 MCULE-9613971028 PubChem-14488320 ZINC000096125881 ZINC96125881
 20 20 0 0 0
SMALL
GASTEIGER

@<TRIPOS>ATOM
      1 C          10.4931   41.6729    8.8818 C.ar    1  UNL1        0.2224
      2 C           8.9236   41.8110   10.2975 C.ar    1  UNL1        0.1559
      3 C           9.9816   41.1809   10.9259 C.ar    1  UNL1        0.1122
      4 C          12.2696   40.5094   10.2466 C.3     1  UNL1        0.1322
      5 N           9.2299   42.1228    9.0229 N.ar    1  UNL1       -0.2058
      6 N          10.9635   41.1033   10.0136 N.ar    1  UNL1       -0.3020
      7 C           6.3794   41.6893   10.3813 C.2     1  UNL1        0.4063
      8 O           6.3023   40.9847    9.3376 O.2     1  UNL1       -0.2261
      9 N           7.6517   42.1139   10.8824 N.am    1  UNL1       -0.2338
     10 H           7.6523   42.6618   11.7003 H       1  UNL1        0.1597
     11 O           5.2208   42.0705   11.0715 O.3     1  UNL1       -0.4417
     12 C           3.8947   41.9830   10.5440 C.3     1  UNL1        0.1378
     13 C           3.7728   42.9416    9.3786 C.3     1  UNL1        0.0437
     14 C           2.8708   42.3734   11.5959 C.3     1  UNL1        0.0437
     15 C           3.6073   40.5784   10.0423 C.3     1  UNL1        0.0437
     16 C          11.2411   41.8061    7.6194 C.2     1  UNL1        0.3760
     17 O          10.8015   41.2888    6.5565 O.2     1  UNL1       -0.2415
     18 O          12.4445   42.5140    7.6132 O.3     1  UNL1       -0.4434
     19 C          13.9397   43.6012    6.0875 C.3     1  UNL1        0.0513
     20 C          13.4496   42.2785    6.6383 C.3     1  UNL1        0.2090
@<TRIPOS>BOND
     1    19    20    1
     2    20    18    1
     3    16    18    1
     4    16     1    1
     5     2     5   ar
     6     2     9    1
     7     7    11    1
     8    12    11    1
     9    12    13    1
    10    12    14    1
    11    12    15    1
    12     3     6   ar
    13     4     6    1
    14     9     7   am
    15     6     1   ar
    16    16    17    2
    17     1     5   ar
    18     2     3   ar
    19     7     8    2
    20     9    10    1
