@<TRIPOS>MOLECULE
MolPort-003-131-707 4496623 CSSS03437127437 MCULE-1324457230 PubChem-7254686 ZINC000004496623
 24 26 0 0 0
SMALL
GASTEIGER

@<TRIPOS>ATOM
      1 C          13.2954   42.4016    6.3524 C.ar    1  UNL1        0.1656
      2 C          15.4007   43.4123    7.0350 C.ar    1  UNL1        0.0527
      3 C          15.1399   42.1702    7.5950 C.ar    1  UNL1        0.1230
      4 C          16.0515   41.5873    8.4808 C.ar    1  UNL1        0.1566
      5 C          17.2342   42.2955    8.7817 C.ar    1  UNL1        0.0385
      6 C          17.4842   43.5550    8.2051 C.ar    1  UNL1        0.0037
      7 C          16.5600   44.1279    7.3190 C.ar    1  UNL1        0.0083
      8 N          13.9662   41.6017    7.2155 N.ar    1  UNL1       -0.2209
      9 S          14.1340   43.8413    6.0234 S.2     1  UNL1       -0.0513
     10 C          10.8186   41.7891    6.5218 C.2     1  UNL1        0.2389
     11 N          12.0310   42.0220    5.7959 N.am    1  UNL1       -0.2634
     12 O          10.7847   41.8591    7.7785 O.2     1  UNL1       -0.2738
     13 H          11.9917   41.9104    4.8186 H       1  UNL1        0.1568
     14 C           9.5701   41.4688    5.7767 C.3     1  UNL1        0.1473
     15 S           8.4979   40.3811    6.7680 S.3     1  UNL1       -0.1039
     16 C           7.4078   41.7122    7.2602 C.ar    1  UNL1        0.0257
     17 C           7.2178   42.8111    6.4150 C.ar    1  UNL1        0.0062
     18 C           6.3605   43.8475    6.7966 C.ar    1  UNL1        0.0005
     19 C           5.6893   43.7841    8.0218 C.ar    1  UNL1        0.0000
     20 C           5.8740   42.6835    8.8644 C.ar    1  UNL1        0.0005
     21 C           6.7315   41.6469    8.4832 C.ar    1  UNL1        0.0062
     22 O          15.7787   40.3316    9.0373 O.3     1  UNL1       -0.4739
     23 C          14.7155   40.1008    9.9547 C.3     1  UNL1        0.2056
     24 C          15.1207   39.0502   10.9714 C.3     1  UNL1        0.0512
@<TRIPOS>BOND
     1     1    11    1
     2     1     9   ar
     3    14    10    1
     4    14    15    1
     5    16    15    1
     6    17    18   ar
     7    19    20   ar
     8    21    16   ar
     9     2     9   ar
    10     3     4   ar
    11     3     8   ar
    12     4    22    1
    13     5     6   ar
    14     7     2   ar
    15    23    22    1
    16    23    24    1
    17    11    10   am
    18     1     8   ar
    19    10    12    2
    20    16    17   ar
    21    18    19   ar
    22    20    21   ar
    23     2     3   ar
    24     4     5   ar
    25     6     7   ar
    26    11    13    1
@<TRIPOS>MOLECULE
MolPort-003-131-707 4496623 CSSS03437127437 MCULE-1324457230 PubChem-7254686 ZINC000004496623
 24 26 0 0 0
SMALL
GASTEIGER

@<TRIPOS>ATOM
      1 C          13.6522   42.1564    7.2061 C.ar    1  UNL1        0.1656
      2 C          15.6152   43.4656    6.6126 C.ar    1  UNL1        0.0527
      3 C          15.8354   42.4806    7.5644 C.ar    1  UNL1        0.1230
      4 C          17.1092   42.2962    8.1110 C.ar    1  UNL1        0.1566
      5 C          18.1531   43.1345    7.6658 C.ar    1  UNL1        0.0385
      6 C          17.9136   44.1294    6.6993 C.ar    1  UNL1        0.0037
      7 C          16.6302   44.3036    6.1607 C.ar    1  UNL1        0.0083
      8 N          14.7423   41.7464    7.8976 N.ar    1  UNL1       -0.2209
      9 S          14.0030   43.4411    6.1521 S.2     1  UNL1       -0.0513
     10 C          11.3116   41.9814    8.2205 C.2     1  UNL1        0.2389
     11 N          12.3732   41.5324    7.3705 N.am    1  UNL1       -0.2634
     12 O          11.4497   42.9887    8.9632 O.2     1  UNL1       -0.2738
     13 H          12.2077   40.7146    6.8479 H       1  UNL1        0.1568
     14 C          10.0143   41.2507    8.2187 C.3     1  UNL1        0.1473
     15 S           9.5435   40.7845    9.9146 S.3     1  UNL1       -0.1039
     16 C          10.9952   39.7675   10.1612 C.ar    1  UNL1        0.0257
     17 C          12.0241   40.2069   11.0016 C.ar    1  UNL1        0.0062
     18 C          13.1548   39.4089   11.1997 C.ar    1  UNL1        0.0005
     19 C          13.2560   38.1691   10.5609 C.ar    1  UNL1        0.0000
     20 C          12.2256   37.7263    9.7257 C.ar    1  UNL1        0.0005
     21 C          11.0946   38.5243    9.5270 C.ar    1  UNL1        0.0062
     22 O          17.3198   41.2966    9.0687 O.3     1  UNL1       -0.4739
     23 C          16.2875   40.4352    9.5352 C.3     1  UNL1        0.2056
     24 C          16.8655   39.3768   10.4559 C.3     1  UNL1        0.0512
@<TRIPOS>BOND
     1     1    11    1
     2     1     9   ar
     3    14    10    1
     4    14    15    1
     5    16    15    1
     6    17    18   ar
     7    19    20   ar
     8    21    16   ar
     9     2     9   ar
    10     3     4   ar
    11     3     8   ar
    12     4    22    1
    13     5     6   ar
    14     7     2   ar
    15    23    22    1
    16    23    24    1
    17    11    10   am
    18     1     8   ar
    19    10    12    2
    20    16    17   ar
    21    18    19   ar
    22    20    21   ar
    23     2     3   ar
    24     4     5   ar
    25     6     7   ar
    26    11    13    1
@<TRIPOS>MOLECULE
MolPort-003-131-707 4496623 CSSS03437127437 MCULE-1324457230 PubChem-7254686 ZINC000004496623
 24 26 0 0 0
SMALL
GASTEIGER

@<TRIPOS>ATOM
      1 C          13.6447   41.9457    7.1814 C.ar    1  UNL1        0.1656
      2 C          15.5778   43.3791    6.8234 C.ar    1  UNL1        0.0527
      3 C          15.7956   42.3060    7.6752 C.ar    1  UNL1        0.1230
      4 C          17.0507   42.1088    8.2591 C.ar    1  UNL1        0.1566
      5 C          18.0787   43.0262    7.9551 C.ar    1  UNL1        0.0385
      6 C          17.8418   44.1100    7.0888 C.ar    1  UNL1        0.0037
      7 C          16.5771   44.2959    6.5112 C.ar    1  UNL1        0.0083
      8 N          14.7193   41.5023    7.8767 N.ar    1  UNL1       -0.2209
      9 S          13.9894   43.3475    6.2868 S.2     1  UNL1       -0.0513
     10 C          11.1760   41.7430    7.8159 C.2     1  UNL1        0.2389
     11 N          12.3857   41.2631    7.2180 N.am    1  UNL1       -0.2634
     12 O          11.1405   42.8421    8.4289 O.2     1  UNL1       -0.2738
     13 H          12.3484   40.3771    6.7903 H       1  UNL1        0.1568
     14 C           9.9321   40.9327    7.7014 C.3     1  UNL1        0.1473
     15 S           8.5096   42.0009    7.3136 S.3     1  UNL1       -0.1039
     16 C           7.7548   41.7747    8.9204 C.ar    1  UNL1        0.0257
     17 C           8.5527   41.7275   10.0689 C.ar    1  UNL1        0.0062
     18 C           7.9622   41.5580   11.3247 C.ar    1  UNL1        0.0005
     19 C           6.5731   41.4396   11.4338 C.ar    1  UNL1        0.0000
     20 C           5.7744   41.4927   10.2871 C.ar    1  UNL1        0.0005
     21 C           6.3646   41.6620    9.0309 C.ar    1  UNL1        0.0062
     22 O          17.2593   41.0202    9.1149 O.3     1  UNL1       -0.4739
     23 C          16.2067   40.3687    9.8168 C.3     1  UNL1        0.2056
     24 C          16.7688   39.2739   10.7042 C.3     1  UNL1        0.0512
@<TRIPOS>BOND
     1     1    11    1
     2     1     9   ar
     3    14    10    1
     4    14    15    1
     5    16    15    1
     6    17    18   ar
     7    19    20   ar
     8    21    16   ar
     9     2     9   ar
    10     3     4   ar
    11     3     8   ar
    12     4    22    1
    13     5     6   ar
    14     7     2   ar
    15    23    22    1
    16    23    24    1
    17    11    10   am
    18     1     8   ar
    19    10    12    2
    20    16    17   ar
    21    18    19   ar
    22    20    21   ar
    23     2     3   ar
    24     4     5   ar
    25     6     7   ar
    26    11    13    1
@<TRIPOS>MOLECULE
MolPort-003-131-707 4496623 CSSS03437127437 MCULE-1324457230 PubChem-7254686 ZINC000004496623
 24 26 0 0 0
SMALL
GASTEIGER

@<TRIPOS>ATOM
      1 C          13.6783   41.8393    7.6628 C.ar    1  UNL1        0.1656
      2 C          15.5203   43.2997    7.0352 C.ar    1  UNL1        0.0527
      3 C          15.8696   42.2389    7.8581 C.ar    1  UNL1        0.1230
      4 C          17.1954   42.0676    8.2682 C.ar    1  UNL1        0.1566
      5 C          18.1569   42.9981    7.8207 C.ar    1  UNL1        0.0385
      6 C          17.7866   44.0693    6.9859 C.ar    1  UNL1        0.0037
      7 C          16.4524   44.2291    6.5834 C.ar    1  UNL1        0.0083
      8 N          14.8445   41.4202    8.2098 N.ar    1  UNL1       -0.2209
      9 S          13.8747   43.2373    6.7188 S.2     1  UNL1       -0.0513
     10 C          11.9614   40.6331    9.1242 C.2     1  UNL1        0.2389
     11 N          12.4477   41.1371    7.8749 N.am    1  UNL1       -0.2634
     12 O          12.6403   40.7348   10.1796 O.2     1  UNL1       -0.2738
     13 H          11.8807   40.9862    7.0844 H       1  UNL1        0.1568
     14 C          10.6217   39.9858    9.1800 C.3     1  UNL1        0.1473
     15 S           9.3279   41.2261    9.5009 S.3     1  UNL1       -0.1039
     16 C           8.2509   40.6039    8.2143 C.ar    1  UNL1        0.0257
     17 C           6.9483   41.0998    8.0903 C.ar    1  UNL1        0.0062
     18 C           6.1095   40.6187    7.0807 C.ar    1  UNL1        0.0005
     19 C           6.5736   39.6443    6.1914 C.ar    1  UNL1        0.0000
     20 C           7.8772   39.1525    6.3107 C.ar    1  UNL1        0.0005
     21 C           8.7164   39.6332    7.3206 C.ar    1  UNL1        0.0062
     22 O          17.5365   40.9912    9.0964 O.3     1  UNL1       -0.4739
     23 C          16.5736   40.2134    9.7987 C.3     1  UNL1        0.2056
     24 C          17.2490   39.4078   10.8926 C.3     1  UNL1        0.0512
@<TRIPOS>BOND
     1     1    11    1
     2     1     9   ar
     3    14    10    1
     4    14    15    1
     5    16    15    1
     6    17    18   ar
     7    19    20   ar
     8    21    16   ar
     9     2     9   ar
    10     3     4   ar
    11     3     8   ar
    12     4    22    1
    13     5     6   ar
    14     7     2   ar
    15    23    22    1
    16    23    24    1
    17    11    10   am
    18     1     8   ar
    19    10    12    2
    20    16    17   ar
    21    18    19   ar
    22    20    21   ar
    23     2     3   ar
    24     4     5   ar
    25     6     7   ar
    26    11    13    1
@<TRIPOS>MOLECULE
MolPort-003-131-707 4496623 CSSS03437127437 MCULE-1324457230 PubChem-7254686 ZINC000004496623
 24 26 0 0 0
SMALL
GASTEIGER

@<TRIPOS>ATOM
      1 C          12.9181   39.7328    9.1016 C.ar    1  UNL1        0.1656
      2 C          12.2088   37.5740    9.9710 C.ar    1  UNL1        0.0527
      3 C          13.3970   37.5542    9.2554 C.ar    1  UNL1        0.1230
      4 C          14.0953   36.3561    9.0754 C.ar    1  UNL1        0.1566
      5 C          13.5585   35.1804    9.6415 C.ar    1  UNL1        0.0385
      6 C          12.3517   35.2171   10.3650 C.ar    1  UNL1        0.0037
      7 C          11.6615   36.4262   10.5364 C.ar    1  UNL1        0.0083
      8 N          13.7975   38.7576    8.7694 N.ar    1  UNL1       -0.2209
      9 S          11.6138   39.1412   10.0143 S.2     1  UNL1       -0.0513
     10 C          12.7900   41.6799    7.4491 C.2     1  UNL1        0.2389
     11 N          13.1201   41.0975    8.7151 N.am    1  UNL1       -0.2634
     12 O          12.3139   40.9849    6.5134 O.2     1  UNL1       -0.2738
     13 H          13.5258   41.6934    9.3857 H       1  UNL1        0.1568
     14 C          13.0026   43.1382    7.2372 C.3     1  UNL1        0.1473
     15 S          14.0841   43.4221    5.8002 S.3     1  UNL1       -0.1039
     16 C          15.5862   43.3428    6.7697 C.ar    1  UNL1        0.0257
     17 C          15.7489   42.3370    7.7288 C.ar    1  UNL1        0.0062
     18 C          16.9255   42.2710    8.4810 C.ar    1  UNL1        0.0005
     19 C          17.9422   43.2080    8.2721 C.ar    1  UNL1        0.0000
     20 C          17.7831   44.2100    7.3096 C.ar    1  UNL1        0.0005
     21 C          16.6063   44.2765    6.5573 C.ar    1  UNL1        0.0062
     22 O          15.2953   36.3492    8.3538 O.3     1  UNL1       -0.4739
     23 C          16.5690   36.1687    8.9625 C.3     1  UNL1        0.2056
     24 C          17.2896   34.9932    8.3294 C.3     1  UNL1        0.0512
@<TRIPOS>BOND
     1     1    11    1
     2     1     9   ar
     3    14    10    1
     4    14    15    1
     5    16    15    1
     6    17    18   ar
     7    19    20   ar
     8    21    16   ar
     9     2     9   ar
    10     3     4   ar
    11     3     8   ar
    12     4    22    1
    13     5     6   ar
    14     7     2   ar
    15    23    22    1
    16    23    24    1
    17    11    10   am
    18     1     8   ar
    19    10    12    2
    20    16    17   ar
    21    18    19   ar
    22    20    21   ar
    23     2     3   ar
    24     4     5   ar
    25     6     7   ar
    26    11    13    1
@<TRIPOS>MOLECULE
MolPort-003-131-707 4496623 CSSS03437127437 MCULE-1324457230 PubChem-7254686 ZINC000004496623
 24 26 0 0 0
SMALL
GASTEIGER

@<TRIPOS>ATOM
      1 C          13.1869   42.0579    7.4274 C.ar    1  UNL1        0.1656
      2 C          15.3121   43.0557    6.7890 C.ar    1  UNL1        0.0527
      3 C          15.3694   42.2121    7.8887 C.ar    1  UNL1        0.1230
      4 C          16.5829   41.9867    8.5459 C.ar    1  UNL1        0.1566
      5 C          17.7359   42.6371    8.0577 C.ar    1  UNL1        0.0385
      6 C          17.6613   43.4902    6.9406 C.ar    1  UNL1        0.0037
      7 C          16.4367   43.7076    6.2920 C.ar    1  UNL1        0.0083
      8 N          14.1853   41.6517    8.2477 N.ar    1  UNL1       -0.2209
      9 S          13.7349   43.1230    6.2234 S.2     1  UNL1       -0.0513
     10 C          10.9066   42.0377    8.5841 C.2     1  UNL1        0.2389
     11 N          11.8397   41.5986    7.5903 N.am    1  UNL1       -0.2634
     12 O          11.2356   42.8730    9.4669 O.2     1  UNL1       -0.2738
     13 H          11.5244   40.9140    6.9570 H       1  UNL1        0.1568
     14 C           9.5162   41.5054    8.5677 C.3     1  UNL1        0.1473
     15 S           8.7146   41.7678   10.1814 S.3     1  UNL1       -0.1039
     16 C           7.3288   42.6552    9.4782 C.ar    1  UNL1        0.0257
     17 C           7.5354   43.8796    8.8330 C.ar    1  UNL1        0.0062
     18 C           6.4535   44.5691    8.2774 C.ar    1  UNL1        0.0005
     19 C           5.1647   44.0332    8.3628 C.ar    1  UNL1        0.0000
     20 C           4.9581   42.8068    9.0021 C.ar    1  UNL1        0.0005
     21 C           6.0399   42.1169    9.5581 C.ar    1  UNL1        0.0062
     22 O          16.6288   41.1305    9.6530 O.3     1  UNL1       -0.4739
     23 C          16.8912   39.7358    9.5484 C.3     1  UNL1        0.2056
     24 C          17.7456   39.2753   10.7145 C.3     1  UNL1        0.0512
@<TRIPOS>BOND
     1     1    11    1
     2     1     9   ar
     3    14    10    1
     4    14    15    1
     5    16    15    1
     6    17    18   ar
     7    19    20   ar
     8    21    16   ar
     9     2     9   ar
    10     3     4   ar
    11     3     8   ar
    12     4    22    1
    13     5     6   ar
    14     7     2   ar
    15    23    22    1
    16    23    24    1
    17    11    10   am
    18     1     8   ar
    19    10    12    2
    20    16    17   ar
    21    18    19   ar
    22    20    21   ar
    23     2     3   ar
    24     4     5   ar
    25     6     7   ar
    26    11    13    1
@<TRIPOS>MOLECULE
MolPort-003-131-707 4496623 CSSS03437127437 MCULE-1324457230 PubChem-7254686 ZINC000004496623
 24 26 0 0 0
SMALL
GASTEIGER

@<TRIPOS>ATOM
      1 C          13.6866   41.7029    7.6281 C.ar    1  UNL1        0.1656
      2 C          15.4620   43.3079    7.1903 C.ar    1  UNL1        0.0527
      3 C          15.8595   42.1688    7.8750 C.ar    1  UNL1        0.1230
      4 C          17.1930   42.0048    8.2627 C.ar    1  UNL1        0.1566
      5 C          18.1121   43.0244    7.9362 C.ar    1  UNL1        0.0385
      6 C          17.6930   44.1743    7.2409 C.ar    1  UNL1        0.0037
      7 C          16.3516   44.3255    6.8594 C.ar    1  UNL1        0.0083
      8 N          14.8717   41.2694    8.1203 N.ar    1  UNL1       -0.2209
      9 S          13.8193   43.2149    6.8661 S.2     1  UNL1       -0.0513
     10 C          11.4010   41.1781    8.6473 C.2     1  UNL1        0.2389
     11 N          12.4880   40.9276    7.7491 N.am    1  UNL1       -0.2634
     12 O          11.4421   42.1247    9.4763 O.2     1  UNL1       -0.2738
     13 H          12.4032   40.1459    7.1566 H       1  UNL1        0.1568
     14 C          10.1927   40.3098    8.5933 C.3     1  UNL1        0.1473
     15 S           8.9066   41.0719    7.5539 S.3     1  UNL1       -0.1039
     16 C           9.4511   40.2376    6.0674 C.ar    1  UNL1        0.0257
     17 C          10.2677   40.9055    5.1481 C.ar    1  UNL1        0.0062
     18 C          10.6989   40.2511    3.9904 C.ar    1  UNL1        0.0005
     19 C          10.3174   38.9269    3.7527 C.ar    1  UNL1        0.0000
     20 C           9.5063   38.2566    4.6736 C.ar    1  UNL1        0.0005
     21 C           9.0746   38.9108    5.8316 C.ar    1  UNL1        0.0062
     22 O          17.5829   40.8492    8.9507 O.3     1  UNL1       -0.4739
     23 C          16.9464   40.3998   10.1415 C.3     1  UNL1        0.2056
     24 C          17.3240   38.9579   10.4244 C.3     1  UNL1        0.0512
@<TRIPOS>BOND
     1     1    11    1
     2     1     9   ar
     3    14    10    1
     4    14    15    1
     5    16    15    1
     6    17    18   ar
     7    19    20   ar
     8    21    16   ar
     9     2     9   ar
    10     3     4   ar
    11     3     8   ar
    12     4    22    1
    13     5     6   ar
    14     7     2   ar
    15    23    22    1
    16    23    24    1
    17    11    10   am
    18     1     8   ar
    19    10    12    2
    20    16    17   ar
    21    18    19   ar
    22    20    21   ar
    23     2     3   ar
    24     4     5   ar
    25     6     7   ar
    26    11    13    1
@<TRIPOS>MOLECULE
MolPort-003-131-707 4496623 CSSS03437127437 MCULE-1324457230 PubChem-7254686 ZINC000004496623
 24 26 0 0 0
SMALL
GASTEIGER

@<TRIPOS>ATOM
      1 C          11.9508   41.0218    9.4631 C.ar    1  UNL1        0.1656
      2 C          13.5518   39.5774   10.5901 C.ar    1  UNL1        0.0527
      3 C          14.1042   40.4563    9.6699 C.ar    1  UNL1        0.1230
      4 C          15.4840   40.4699    9.4436 C.ar    1  UNL1        0.1566
      5 C          16.2882   39.5712   10.1760 C.ar    1  UNL1        0.0385
      6 C          15.7125   38.6855   11.1063 C.ar    1  UNL1        0.0037
      7 C          14.3265   38.6824   11.3219 C.ar    1  UNL1        0.0083
      8 N          13.2140   41.2655    9.0393 N.ar    1  UNL1       -0.2209
      9 S          11.8901   39.7976   10.6387 S.2     1  UNL1       -0.0513
     10 C          10.0463   42.7149    9.6743 C.2     1  UNL1        0.2389
     11 N          10.8283   41.7536    8.9563 N.am    1  UNL1       -0.2634
     12 O          10.2718   42.9673   10.8870 O.2     1  UNL1       -0.2738
     13 H          10.5690   41.5784    8.0228 H       1  UNL1        0.1568
     14 C           8.9520   43.4394    8.9712 C.3     1  UNL1        0.1473
     15 S           8.1198   42.3387    7.7833 S.3     1  UNL1       -0.1039
     16 C           6.4950   43.0042    8.1291 C.ar    1  UNL1        0.0257
     17 C           5.9771   44.0354    7.3376 C.ar    1  UNL1        0.0062
     18 C           4.7048   44.5502    7.6035 C.ar    1  UNL1        0.0005
     19 C           3.9474   44.0316    8.6584 C.ar    1  UNL1        0.0000
     20 C           4.4615   42.9970    9.4462 C.ar    1  UNL1        0.0005
     21 C           5.7342   42.4820    9.1808 C.ar    1  UNL1        0.0062
     22 O          16.0303   41.3637    8.5144 O.3     1  UNL1       -0.4739
     23 C          17.2035   42.1288    8.7667 C.3     1  UNL1        0.2056
     24 C          17.7725   42.6589    7.4639 C.3     1  UNL1        0.0512
@<TRIPOS>BOND
     1     1    11    1
     2     1     9   ar
     3    14    10    1
     4    14    15    1
     5    16    15    1
     6    17    18   ar
     7    19    20   ar
     8    21    16   ar
     9     2     9   ar
    10     3     4   ar
    11     3     8   ar
    12     4    22    1
    13     5     6   ar
    14     7     2   ar
    15    23    22    1
    16    23    24    1
    17    11    10   am
    18     1     8   ar
    19    10    12    2
    20    16    17   ar
    21    18    19   ar
    22    20    21   ar
    23     2     3   ar
    24     4     5   ar
    25     6     7   ar
    26    11    13    1
@<TRIPOS>MOLECULE
MolPort-003-131-707 4496623 CSSS03437127437 MCULE-1324457230 PubChem-7254686 ZINC000004496623
 24 26 0 0 0
SMALL
GASTEIGER

@<TRIPOS>ATOM
      1 C          11.0417   41.2863    9.3947 C.ar    1  UNL1        0.1656
      2 C          13.3884   40.6602    9.5387 C.ar    1  UNL1        0.0527
      3 C          13.0999   41.6329    8.5926 C.ar    1  UNL1        0.1230
      4 C          14.1183   42.1793    7.8055 C.ar    1  UNL1        0.1566
      5 C          15.4359   41.7155    8.0045 C.ar    1  UNL1        0.0385
      6 C          15.7124   40.7280    8.9687 C.ar    1  UNL1        0.0037
      7 C          14.6802   40.1881    9.7503 C.ar    1  UNL1        0.0083
      8 N          11.7910   41.9864    8.5098 N.ar    1  UNL1       -0.2209
      9 S          11.9737   40.2064   10.3164 S.2     1  UNL1       -0.0513
     10 C           8.9703   42.6708    9.9698 C.2     1  UNL1        0.2389
     11 N           9.6275   41.4837    9.5115 N.am    1  UNL1       -0.2634
     12 O           9.6257   43.6683   10.3707 O.2     1  UNL1       -0.2738
     13 H           9.0510   40.7294    9.2512 H       1  UNL1        0.1568
     14 C           7.4827   42.7326    9.9618 C.3     1  UNL1        0.1473
     15 S           6.7935   41.3632    8.9795 S.3     1  UNL1       -0.1039
     16 C           5.1681   41.5008    9.7154 C.ar    1  UNL1        0.0257
     17 C           5.0362   41.8656   11.0598 C.ar    1  UNL1        0.0062
     18 C           3.7660   41.9800   11.6325 C.ar    1  UNL1        0.0005
     19 C           2.6263   41.7338   10.8605 C.ar    1  UNL1        0.0000
     20 C           2.7569   41.3751    9.5152 C.ar    1  UNL1        0.0005
     21 C           4.0272   41.2603    8.9421 C.ar    1  UNL1        0.0062
     22 O          13.8153   43.1627    6.8558 O.3     1  UNL1       -0.4739
     23 C          14.6563   43.4598    5.7469 C.3     1  UNL1        0.2056
     24 C          15.0271   44.9310    5.7510 C.3     1  UNL1        0.0512
@<TRIPOS>BOND
     1     1    11    1
     2     1     9   ar
     3    14    10    1
     4    14    15    1
     5    16    15    1
     6    17    18   ar
     7    19    20   ar
     8    21    16   ar
     9     2     9   ar
    10     3     4   ar
    11     3     8   ar
    12     4    22    1
    13     5     6   ar
    14     7     2   ar
    15    23    22    1
    16    23    24    1
    17    11    10   am
    18     1     8   ar
    19    10    12    2
    20    16    17   ar
    21    18    19   ar
    22    20    21   ar
    23     2     3   ar
    24     4     5   ar
    25     6     7   ar
    26    11    13    1
@<TRIPOS>MOLECULE
MolPort-003-131-707 4496623 CSSS03437127437 MCULE-1324457230 PubChem-7254686 ZINC000004496623
 24 26 0 0 0
SMALL
GASTEIGER

@<TRIPOS>ATOM
      1 C          12.9447   40.7832    7.5564 C.ar    1  UNL1        0.1656
      2 C          13.4723   42.7689    6.2532 C.ar    1  UNL1        0.0527
      3 C          14.4784   42.3480    7.1106 C.ar    1  UNL1        0.1230
      4 C          15.6863   43.0488    7.1830 C.ar    1  UNL1        0.1566
      5 C          15.8476   44.1852    6.3625 C.ar    1  UNL1        0.0385
      6 C          14.8171   44.5995    5.4977 C.ar    1  UNL1        0.0037
      7 C          13.6103   43.8871    5.4365 C.ar    1  UNL1        0.0083
      8 N          14.1886   41.2388    7.8391 N.ar    1  UNL1       -0.2209
      9 S          12.1592   41.7348    6.3895 S.2     1  UNL1       -0.0513
     10 C          11.9667   39.5100    9.5466 C.2     1  UNL1        0.2389
     11 N          12.4052   39.6156    8.1873 N.am    1  UNL1       -0.2634
     12 O          12.0728   40.4775   10.3453 O.2     1  UNL1       -0.2738
     13 H          12.3283   38.8063    7.6319 H       1  UNL1        0.1568
     14 C          11.3628   38.2354   10.0234 C.3     1  UNL1        0.1473
     15 S          12.4326   36.8251    9.5973 S.3     1  UNL1       -0.1039
     16 C          13.9034   37.5885   10.2729 C.ar    1  UNL1        0.0257
     17 C          14.9950   37.8634    9.4418 C.ar    1  UNL1        0.0062
     18 C          16.1412   38.4664    9.9685 C.ar    1  UNL1        0.0005
     19 C          16.1953   38.7988   11.3257 C.ar    1  UNL1        0.0000
     20 C          15.1026   38.5300   12.1559 C.ar    1  UNL1        0.0005
     21 C          13.9561   37.9266   11.6296 C.ar    1  UNL1        0.0062
     22 O          16.6957   42.6125    8.0500 O.3     1  UNL1       -0.4739
     23 C          17.5406   43.5018    8.7715 C.3     1  UNL1        0.2056
     24 C          18.6124   44.0633    7.8561 C.3     1  UNL1        0.0512
@<TRIPOS>BOND
     1     1    11    1
     2     1     9   ar
     3    14    10    1
     4    14    15    1
     5    16    15    1
     6    17    18   ar
     7    19    20   ar
     8    21    16   ar
     9     2     9   ar
    10     3     4   ar
    11     3     8   ar
    12     4    22    1
    13     5     6   ar
    14     7     2   ar
    15    23    22    1
    16    23    24    1
    17    11    10   am
    18     1     8   ar
    19    10    12    2
    20    16    17   ar
    21    18    19   ar
    22    20    21   ar
    23     2     3   ar
    24     4     5   ar
    25     6     7   ar
    26    11    13    1
