@<TRIPOS>MOLECULE
MolPort-000-061-005 1361298 MCULE-4841259958 PubChem-1455182 ZINC000001361298 ZINC01361298
 31 33 0 0 0
SMALL
GASTEIGER

@<TRIPOS>ATOM
      1 C          12.7725   38.3535    9.7163 C.2     1  UNL1        0.2376
      2 O          13.3486   37.4042   10.3080 O.2     1  UNL1       -0.2738
      3 N          11.5484   38.8703   10.2587 N.am    1  UNL1       -0.2832
      4 H          11.2532   38.4738   11.1101 H       1  UNL1        0.1549
      5 C           9.0429   41.9451    8.7276 C.ar    1  UNL1        0.0463
      6 C           9.0315   40.6782    8.1367 C.ar    1  UNL1        0.0156
      7 C           9.8463   39.6581    8.6303 C.ar    1  UNL1        0.0159
      8 C          10.7007   39.8930    9.7152 C.ar    1  UNL1        0.0501
      9 C          10.7344   41.1662   10.2907 C.ar    1  UNL1        0.0116
     10 C           9.9202   42.1950    9.8066 C.ar    1  UNL1       -0.0071
     11 C          10.0757   43.5514   10.4046 C.3     1  UNL1        0.0324
     12 C           6.8251   43.1689    8.5140 C.2     1  UNL1        0.2261
     13 O           6.1864   42.3005    9.1657 O.2     1  UNL1       -0.2748
     14 N           8.1992   42.9607    8.1693 N.am    1  UNL1       -0.2842
     15 H           8.5950   43.5612    7.4971 H       1  UNL1        0.1548
     16 C           4.6254   44.2404    8.2313 C.3     1  UNL1        0.0101
     17 C           6.1222   44.3943    8.0452 C.3     1  UNL1        0.0854
     18 C          13.4171   38.9351    8.5042 C.3     1  UNL1        0.1502
     19 S          14.3762   40.4070    8.9648 S.3     1  UNL1       -0.0641
     20 C          13.7266   41.3453    7.5820 C.ar    1  UNL1        0.2152
     21 N          12.4973   41.1462    7.0737 N.ar    1  UNL1       -0.1011
     22 N          12.3734   42.0449    6.1079 N.ar    1  UNL1       -0.0218
     23 N          13.4759   42.7736    6.0235 N.ar    1  UNL1       -0.0381
     24 N          14.3407   42.3600    6.9349 N.ar    1  UNL1       -0.1840
     25 C          15.6556   42.9226    7.1274 C.ar    1  UNL1        0.1139
     26 C          16.2325   43.7647    6.1528 C.ar    1  UNL1        0.1578
     27 C          17.5145   44.2893    6.3440 C.ar    1  UNL1        0.0312
     28 C          18.2370   43.9821    7.4981 C.ar    1  UNL1        0.0024
     29 C          17.6790   43.1478    8.4667 C.ar    1  UNL1        0.0017
     30 C          16.3987   42.6219    8.2798 C.ar    1  UNL1        0.0216
     31 F          15.5567   44.0977    5.0256 F       1  UNL1       -0.2026
@<TRIPOS>BOND
     1    16    17    1
     2    17    12    1
     3    12    14   am
     4     6     7   ar
     5     8     3    1
     6     8     9   ar
     7    18     1    1
     8    18    19    1
     9    20    19    1
    10    26    31    1
    11    26    27   ar
    12    28    29   ar
    13    30    25   ar
    14    10     5   ar
    15    11    10    1
    16    14     5    1
    17     3     1   am
    18    21    22   ar
    19    24    23   ar
    20    24    25    1
    21    24    20   ar
    22    12    13    2
    23     5     6   ar
    24     7     8   ar
    25     1     2    2
    26    20    21   ar
    27    25    26   ar
    28    27    28   ar
    29    29    30   ar
    30     9    10   ar
    31    22    23   ar
    32    14    15    1
    33     3     4    1
@<TRIPOS>MOLECULE
MolPort-000-061-005 1361298 MCULE-4841259958 PubChem-1455182 ZINC000001361298 ZINC01361298
 31 33 0 0 0
SMALL
GASTEIGER

@<TRIPOS>ATOM
      1 C           9.1703   39.0396    6.8127 C.2     1  UNL1        0.2376
      2 O           8.4143   38.0371    6.8934 O.2     1  UNL1       -0.2738
      3 N          10.5839   38.8600    6.9840 N.am    1  UNL1       -0.2832
      4 H          10.8884   37.9319    7.1073 H       1  UNL1        0.1549
      5 C          13.6387   41.8142    7.1126 C.ar    1  UNL1        0.0463
      6 C          12.6416   41.8852    6.1353 C.ar    1  UNL1        0.0156
      7 C          11.6306   40.9243    6.0825 C.ar    1  UNL1        0.0159
      8 C          11.6092   39.8642    6.9980 C.ar    1  UNL1        0.0501
      9 C          12.6201   39.7754    7.9590 C.ar    1  UNL1        0.0116
     10 C          13.6362   40.7341    8.0233 C.ar    1  UNL1       -0.0071
     11 C          14.7335   40.5264    9.0105 C.3     1  UNL1        0.0324
     12 C          14.9047   43.7420    6.0435 C.2     1  UNL1        0.2261
     13 O          14.3786   43.5712    4.9117 O.2     1  UNL1       -0.2748
     14 N          14.6626   42.8175    7.1097 N.am    1  UNL1       -0.2842
     15 H          15.2442   42.8753    7.9020 H       1  UNL1        0.1548
     16 C          17.0555   44.4269    7.0292 C.3     1  UNL1        0.0101
     17 C          15.8369   44.8836    6.2512 C.3     1  UNL1        0.0854
     18 C           8.5672   40.3643    6.4894 C.3     1  UNL1        0.1502
     19 S           6.7803   40.3208    6.8115 S.3     1  UNL1       -0.0641
     20 C           6.6960   42.1055    6.9602 C.ar    1  UNL1        0.2152
     21 N           7.1883   42.9429    6.0298 N.ar    1  UNL1       -0.1011
     22 N           6.9013   44.1583    6.4728 N.ar    1  UNL1       -0.0218
     23 N           6.2545   44.0789    7.6256 N.ar    1  UNL1       -0.0381
     24 N           6.1097   42.8062    7.9556 N.ar    1  UNL1       -0.1840
     25 C           5.4566   42.3434    9.1562 C.ar    1  UNL1        0.1139
     26 C           4.1126   42.6803    9.4252 C.ar    1  UNL1        0.1578
     27 C           3.4970   42.2396   10.6008 C.ar    1  UNL1        0.0312
     28 C           4.2065   41.4661   11.5209 C.ar    1  UNL1        0.0024
     29 C           5.5364   41.1299   11.2680 C.ar    1  UNL1        0.0017
     30 C           6.1550   41.5679   10.0950 C.ar    1  UNL1        0.0216
     31 F           3.3862   43.4175    8.5494 F       1  UNL1       -0.2026
@<TRIPOS>BOND
     1    16    17    1
     2    17    12    1
     3    12    14   am
     4     6     7   ar
     5     8     3    1
     6     8     9   ar
     7    18     1    1
     8    18    19    1
     9    20    19    1
    10    26    31    1
    11    26    27   ar
    12    28    29   ar
    13    30    25   ar
    14    10     5   ar
    15    11    10    1
    16    14     5    1
    17     3     1   am
    18    21    22   ar
    19    24    23   ar
    20    24    25    1
    21    24    20   ar
    22    12    13    2
    23     5     6   ar
    24     7     8   ar
    25     1     2    2
    26    20    21   ar
    27    25    26   ar
    28    27    28   ar
    29    29    30   ar
    30     9    10   ar
    31    22    23   ar
    32    14    15    1
    33     3     4    1
@<TRIPOS>MOLECULE
MolPort-000-061-005 1361298 MCULE-4841259958 PubChem-1455182 ZINC000001361298 ZINC01361298
 31 33 0 0 0
SMALL
GASTEIGER

@<TRIPOS>ATOM
      1 C           9.2940   38.9097    6.8809 C.2     1  UNL1        0.2376
      2 O           8.5547   37.8990    7.0038 O.2     1  UNL1       -0.2738
      3 N          10.7017   38.7755    7.1264 N.am    1  UNL1       -0.2832
      4 H          11.0182   37.8663    7.3323 H       1  UNL1        0.1549
      5 C          13.6951   41.7945    7.1631 C.ar    1  UNL1        0.0463
      6 C          12.6800   41.8314    6.2025 C.ar    1  UNL1        0.0156
      7 C          11.6889   40.8489    6.1799 C.ar    1  UNL1        0.0159
      8 C          11.7056   39.8011    7.1094 C.ar    1  UNL1        0.0501
      9 C          12.7344   39.7463    8.0538 C.ar    1  UNL1        0.0116
     10 C          13.7310   40.7268    8.0877 C.ar    1  UNL1       -0.0071
     11 C          14.8492   40.5554    9.0583 C.3     1  UNL1        0.0324
     12 C          14.8784   43.7568    6.0627 C.2     1  UNL1        0.2261
     13 O          14.3120   43.5843    4.9509 O.2     1  UNL1       -0.2748
     14 N          14.6973   42.8188    7.1293 N.am    1  UNL1       -0.2842
     15 H          15.3083   42.8822    7.8987 H       1  UNL1        0.1548
     16 C          17.0605   44.4741    6.9520 C.3     1  UNL1        0.0101
     17 C          15.7945   44.9158    6.2442 C.3     1  UNL1        0.0854
     18 C           8.6804   40.1926    6.4330 C.3     1  UNL1        0.1502
     19 S           6.8704   40.0717    6.5211 S.3     1  UNL1       -0.0641
     20 C           6.7001   41.8324    6.8134 C.ar    1  UNL1        0.2152
     21 N           7.0994   42.7644    5.9296 N.ar    1  UNL1       -0.1011
     22 N           6.7720   43.9245    6.4799 N.ar    1  UNL1       -0.0218
     23 N           6.1903   43.7215    7.6521 N.ar    1  UNL1       -0.0381
     24 N           6.1297   42.4213    7.8873 N.ar    1  UNL1       -0.1840
     25 C           5.5642   41.8325    9.0773 C.ar    1  UNL1        0.1139
     26 C           6.3275   41.7119   10.2583 C.ar    1  UNL1        0.1578
     27 C           5.7730   41.1237   11.3993 C.ar    1  UNL1        0.0312
     28 C           4.4613   40.6468   11.3798 C.ar    1  UNL1        0.0024
     29 C           3.6982   40.7569   10.2173 C.ar    1  UNL1        0.0017
     30 C           4.2483   41.3439    9.0757 C.ar    1  UNL1        0.0216
     31 F           7.5999   42.1760   10.3209 F       1  UNL1       -0.2026
@<TRIPOS>BOND
     1    16    17    1
     2    17    12    1
     3    12    14   am
     4     6     7   ar
     5     8     3    1
     6     8     9   ar
     7    18     1    1
     8    18    19    1
     9    20    19    1
    10    26    31    1
    11    26    27   ar
    12    28    29   ar
    13    30    25   ar
    14    10     5   ar
    15    11    10    1
    16    14     5    1
    17     3     1   am
    18    21    22   ar
    19    24    23   ar
    20    24    25    1
    21    24    20   ar
    22    12    13    2
    23     5     6   ar
    24     7     8   ar
    25     1     2    2
    26    20    21   ar
    27    25    26   ar
    28    27    28   ar
    29    29    30   ar
    30     9    10   ar
    31    22    23   ar
    32    14    15    1
    33     3     4    1
@<TRIPOS>MOLECULE
MolPort-000-061-005 1361298 MCULE-4841259958 PubChem-1455182 ZINC000001361298 ZINC01361298
 31 33 0 0 0
SMALL
GASTEIGER

@<TRIPOS>ATOM
      1 C           8.7604   39.3140    6.5771 C.2     1  UNL1        0.2376
      2 O           7.9478   38.3563    6.5038 O.2     1  UNL1       -0.2738
      3 N          10.1678   39.0373    6.5262 N.am    1  UNL1       -0.2832
      4 H          10.4166   38.0957    6.3827 H       1  UNL1        0.1549
      5 C          13.4065   41.7498    7.0045 C.ar    1  UNL1        0.0463
      6 C          12.4867   41.9387    5.9688 C.ar    1  UNL1        0.0156
      7 C          11.4168   41.0582    5.8011 C.ar    1  UNL1        0.0159
      8 C          11.2577   39.9617    6.6583 C.ar    1  UNL1        0.0501
      9 C          12.1910   39.7547    7.6778 C.ar    1  UNL1        0.0116
     10 C          13.2652   40.6321    7.8571 C.ar    1  UNL1       -0.0071
     11 C          14.2743   40.2992    8.9023 C.3     1  UNL1        0.0324
     12 C          14.8547   43.6492    6.1343 C.2     1  UNL1        0.2261
     13 O          14.3755   43.5944    4.9706 O.2     1  UNL1       -0.2748
     14 N          14.4962   42.6741    7.1197 N.am    1  UNL1       -0.2842
     15 H          15.0399   42.6355    7.9395 H       1  UNL1        0.1548
     16 C          17.2582   44.1683    6.2775 C.3     1  UNL1        0.0101
     17 C          15.8520   44.7033    6.4651 C.3     1  UNL1        0.0854
     18 C           8.2221   40.7020    6.6607 C.3     1  UNL1        0.1502
     19 S           6.7176   40.7172    7.6778 S.3     1  UNL1       -0.0641
     20 C           6.9132   42.4579    8.0601 C.ar    1  UNL1        0.2152
     21 N           6.2237   43.4282    7.4336 N.ar    1  UNL1       -0.1011
     22 N           6.6088   44.5552    8.0143 N.ar    1  UNL1       -0.0218
     23 N           7.4951   44.2957    8.9633 N.ar    1  UNL1       -0.0381
     24 N           7.7046   42.9907    9.0167 N.ar    1  UNL1       -0.1840
     25 C           8.6169   42.3471    9.9310 C.ar    1  UNL1        0.1139
     26 C           8.1661   41.8473   11.1716 C.ar    1  UNL1        0.1578
     27 C           9.0639   41.2412   12.0558 C.ar    1  UNL1        0.0312
     28 C          10.4145   41.1284   11.7218 C.ar    1  UNL1        0.0024
     29 C          10.8727   41.6220   10.5003 C.ar    1  UNL1        0.0017
     30 C           9.9792   42.2279    9.6142 C.ar    1  UNL1        0.0216
     31 F           6.8597   41.9252   11.5256 F       1  UNL1       -0.2026
@<TRIPOS>BOND
     1    16    17    1
     2    17    12    1
     3    12    14   am
     4     6     7   ar
     5     8     3    1
     6     8     9   ar
     7    18     1    1
     8    18    19    1
     9    20    19    1
    10    26    31    1
    11    26    27   ar
    12    28    29   ar
    13    30    25   ar
    14    10     5   ar
    15    11    10    1
    16    14     5    1
    17     3     1   am
    18    21    22   ar
    19    24    23   ar
    20    24    25    1
    21    24    20   ar
    22    12    13    2
    23     5     6   ar
    24     7     8   ar
    25     1     2    2
    26    20    21   ar
    27    25    26   ar
    28    27    28   ar
    29    29    30   ar
    30     9    10   ar
    31    22    23   ar
    32    14    15    1
    33     3     4    1
@<TRIPOS>MOLECULE
MolPort-000-061-005 1361298 MCULE-4841259958 PubChem-1455182 ZINC000001361298 ZINC01361298
 31 33 0 0 0
SMALL
GASTEIGER

@<TRIPOS>ATOM
      1 C          10.3984   40.9653    5.8121 C.2     1  UNL1        0.2376
      2 O          11.0430   40.7776    4.7481 O.2     1  UNL1       -0.2738
      3 N           9.0186   41.3520    5.7302 N.am    1  UNL1       -0.2832
      4 H           8.6376   41.3990    4.8236 H       1  UNL1        0.1549
      5 C           6.3732   42.4073    8.8868 C.ar    1  UNL1        0.0463
      6 C           7.1075   41.2200    8.9607 C.ar    1  UNL1        0.0156
      7 C           7.9821   40.8618    7.9336 C.ar    1  UNL1        0.0159
      8 C           8.1249   41.6787    6.8046 C.ar    1  UNL1        0.0501
      9 C           7.3718   42.8527    6.7152 C.ar    1  UNL1        0.0116
     10 C           6.4948   43.2230    7.7396 C.ar    1  UNL1       -0.0071
     11 C           5.6534   44.4365    7.5365 C.3     1  UNL1        0.0324
     12 C           4.1186   42.2731   10.0532 C.2     1  UNL1        0.2261
     13 O           3.5367   41.7715    9.0548 O.2     1  UNL1       -0.2748
     14 N           5.4767   42.7174    9.9615 N.am    1  UNL1       -0.2842
     15 H           5.8213   43.2792   10.6928 H       1  UNL1        0.1548
     16 C           3.2677   41.1479   12.0722 C.3     1  UNL1        0.0101
     17 C           3.3624   42.4616   11.3212 C.3     1  UNL1        0.0854
     18 C          11.0843   40.7254    7.1141 C.3     1  UNL1        0.1502
     19 S          12.2524   42.0747    7.4507 S.3     1  UNL1       -0.0641
     20 C          13.3938   40.9691    8.2809 C.ar    1  UNL1        0.2152
     21 N          13.0043   39.8340    8.8884 N.ar    1  UNL1       -0.1011
     22 N          14.1218   39.2826    9.3390 N.ar    1  UNL1       -0.0218
     23 N          15.1605   40.0399    9.0209 N.ar    1  UNL1       -0.0381
     24 N          14.7362   41.1021    8.3565 N.ar    1  UNL1       -0.1840
     25 C          15.5945   42.1495    7.8577 C.ar    1  UNL1        0.1139
     26 C          16.8476   42.4046    8.4549 C.ar    1  UNL1        0.1578
     27 C          17.6620   43.4339    7.9727 C.ar    1  UNL1        0.0312
     28 C          17.2419   44.2210    6.8992 C.ar    1  UNL1        0.0024
     29 C          16.0038   43.9810    6.3032 C.ar    1  UNL1        0.0017
     30 C          15.1874   42.9538    6.7817 C.ar    1  UNL1        0.0216
     31 F          17.2968   41.6527    9.4898 F       1  UNL1       -0.2026
@<TRIPOS>BOND
     1    16    17    1
     2    17    12    1
     3    12    14   am
     4     6     7   ar
     5     8     3    1
     6     8     9   ar
     7    18     1    1
     8    18    19    1
     9    20    19    1
    10    26    31    1
    11    26    27   ar
    12    28    29   ar
    13    30    25   ar
    14    10     5   ar
    15    11    10    1
    16    14     5    1
    17     3     1   am
    18    21    22   ar
    19    24    23   ar
    20    24    25    1
    21    24    20   ar
    22    12    13    2
    23     5     6   ar
    24     7     8   ar
    25     1     2    2
    26    20    21   ar
    27    25    26   ar
    28    27    28   ar
    29    29    30   ar
    30     9    10   ar
    31    22    23   ar
    32    14    15    1
    33     3     4    1
@<TRIPOS>MOLECULE
MolPort-000-061-005 1361298 MCULE-4841259958 PubChem-1455182 ZINC000001361298 ZINC01361298
 31 33 0 0 0
SMALL
GASTEIGER

@<TRIPOS>ATOM
      1 C          12.5342   37.8290    9.3673 C.2     1  UNL1        0.2376
      2 O          13.1546   36.7355    9.4159 O.2     1  UNL1       -0.2738
      3 N          11.1676   37.8343    8.9289 N.am    1  UNL1       -0.2832
      4 H          10.7737   36.9529    8.7362 H       1  UNL1        0.1549
      5 C           8.6130   41.1987    8.4480 C.ar    1  UNL1        0.0463
      6 C           8.6120   40.1805    7.4900 C.ar    1  UNL1        0.0156
      7 C           9.4430   39.0686    7.6359 C.ar    1  UNL1        0.0159
      8 C          10.3033   38.9638    8.7365 C.ar    1  UNL1        0.0501
      9 C          10.3263   39.9930    9.6818 C.ar    1  UNL1        0.0116
     10 C           9.4960   41.1102    9.5475 C.ar    1  UNL1       -0.0071
     11 C           9.6400   42.2131   10.5398 C.3     1  UNL1        0.0324
     12 C           7.3847   42.8536    6.9600 C.2     1  UNL1        0.2261
     13 O           8.0006   42.5038    5.9183 O.2     1  UNL1       -0.2748
     14 N           7.7527   42.3261    8.2393 N.am    1  UNL1       -0.2842
     15 H           7.3866   42.7721    9.0370 H       1  UNL1        0.1548
     16 C           5.5808   43.9945    8.1893 C.3     1  UNL1        0.0101
     17 C           6.3054   43.8740    6.8629 C.3     1  UNL1        0.0854
     18 C          13.2325   39.0666    9.8190 C.3     1  UNL1        0.1502
     19 S          13.4220   40.2101    8.4208 S.3     1  UNL1       -0.0641
     20 C          15.1335   40.5428    8.8384 C.ar    1  UNL1        0.2152
     21 N          15.8494   39.7664    9.6715 N.ar    1  UNL1       -0.1011
     22 N          17.0591   40.3067    9.6928 N.ar    1  UNL1       -0.0218
     23 N          17.0943   41.3694    8.9034 N.ar    1  UNL1       -0.0381
     24 N          15.9037   41.5414    8.3534 N.ar    1  UNL1       -0.1840
     25 C          15.5727   42.6089    7.4406 C.ar    1  UNL1        0.1139
     26 C          16.3972   43.7491    7.3305 C.ar    1  UNL1        0.1578
     27 C          16.0558   44.7842    6.4545 C.ar    1  UNL1        0.0312
     28 C          14.8948   44.7015    5.6841 C.ar    1  UNL1        0.0024
     29 C          14.0699   43.5814    5.7870 C.ar    1  UNL1        0.0017
     30 C          14.4074   42.5452    6.6605 C.ar    1  UNL1        0.0216
     31 F          17.5402   43.8597    8.0513 F       1  UNL1       -0.2026
@<TRIPOS>BOND
     1    16    17    1
     2    17    12    1
     3    12    14   am
     4     6     7   ar
     5     8     3    1
     6     8     9   ar
     7    18     1    1
     8    18    19    1
     9    20    19    1
    10    26    31    1
    11    26    27   ar
    12    28    29   ar
    13    30    25   ar
    14    10     5   ar
    15    11    10    1
    16    14     5    1
    17     3     1   am
    18    21    22   ar
    19    24    23   ar
    20    24    25    1
    21    24    20   ar
    22    12    13    2
    23     5     6   ar
    24     7     8   ar
    25     1     2    2
    26    20    21   ar
    27    25    26   ar
    28    27    28   ar
    29    29    30   ar
    30     9    10   ar
    31    22    23   ar
    32    14    15    1
    33     3     4    1
@<TRIPOS>MOLECULE
MolPort-000-061-005 1361298 MCULE-4841259958 PubChem-1455182 ZINC000001361298 ZINC01361298
 31 33 0 0 0
SMALL
GASTEIGER

@<TRIPOS>ATOM
      1 C          10.8004   40.4766   10.1980 C.2     1  UNL1        0.2376
      2 O           9.5570   40.6664   10.2282 O.2     1  UNL1       -0.2738
      3 N          11.3038   39.1410   10.3487 N.am    1  UNL1       -0.2832
      4 H          10.6258   38.4305   10.4179 H       1  UNL1        0.1549
      5 C          15.3351   37.7970   10.4821 C.ar    1  UNL1        0.0463
      6 C          14.8638   38.6839   11.4546 C.ar    1  UNL1        0.0156
      7 C          13.5421   39.1314   11.4254 C.ar    1  UNL1        0.0159
      8 C          12.6718   38.7116   10.4112 C.ar    1  UNL1        0.0501
      9 C          13.1476   37.8465    9.4220 C.ar    1  UNL1        0.0116
     10 C          14.4691   37.3892    9.4429 C.ar    1  UNL1       -0.0071
     11 C          14.9362   36.5455    8.3064 C.3     1  UNL1        0.0324
     12 C          17.8294   38.2018   10.2055 C.2     1  UNL1        0.2261
     13 O          17.6704   39.2811    9.5757 O.2     1  UNL1       -0.2748
     14 N          16.7060   37.3835   10.5498 N.am    1  UNL1       -0.2842
     15 H          16.8892   36.4661   10.8566 H       1  UNL1        0.1548
     16 C          19.1677   36.3409   11.1070 C.3     1  UNL1        0.0101
     17 C          19.2066   37.7456   10.5378 C.3     1  UNL1        0.0854
     18 C          11.6950   41.6440    9.9534 C.3     1  UNL1        0.1502
     19 S          10.8123   42.9023    8.9860 S.3     1  UNL1       -0.0641
     20 C          10.9760   41.9515    7.4749 C.ar    1  UNL1        0.2152
     21 N           9.9230   41.4376    6.8142 N.ar    1  UNL1       -0.1011
     22 N          10.4398   40.8500    5.7449 N.ar    1  UNL1       -0.0218
     23 N          11.7559   40.9969    5.7392 N.ar    1  UNL1       -0.0381
     24 N          12.1208   41.6838    6.8091 N.ar    1  UNL1       -0.1840
     25 C          13.4846   42.0266    7.1332 C.ar    1  UNL1        0.1139
     26 C          14.1022   43.1589    6.5601 C.ar    1  UNL1        0.1578
     27 C          15.4299   43.4700    6.8694 C.ar    1  UNL1        0.0312
     28 C          16.1579   42.6619    7.7442 C.ar    1  UNL1        0.0024
     29 C          15.5596   41.5380    8.3139 C.ar    1  UNL1        0.0017
     30 C          14.2336   41.2239    8.0078 C.ar    1  UNL1        0.0216
     31 F          13.4237   43.9760    5.7174 F       1  UNL1       -0.2026
@<TRIPOS>BOND
     1    16    17    1
     2    17    12    1
     3    12    14   am
     4     6     7   ar
     5     8     3    1
     6     8     9   ar
     7    18     1    1
     8    18    19    1
     9    20    19    1
    10    26    31    1
    11    26    27   ar
    12    28    29   ar
    13    30    25   ar
    14    10     5   ar
    15    11    10    1
    16    14     5    1
    17     3     1   am
    18    21    22   ar
    19    24    23   ar
    20    24    25    1
    21    24    20   ar
    22    12    13    2
    23     5     6   ar
    24     7     8   ar
    25     1     2    2
    26    20    21   ar
    27    25    26   ar
    28    27    28   ar
    29    29    30   ar
    30     9    10   ar
    31    22    23   ar
    32    14    15    1
    33     3     4    1
@<TRIPOS>MOLECULE
MolPort-000-061-005 1361298 MCULE-4841259958 PubChem-1455182 ZINC000001361298 ZINC01361298
 31 33 0 0 0
SMALL
GASTEIGER

@<TRIPOS>ATOM
      1 C          11.9426   40.3144   10.5807 C.2     1  UNL1        0.2376
      2 O          12.7432   39.5518   11.1811 O.2     1  UNL1       -0.2738
      3 N          10.5540   40.2888   10.9428 N.am    1  UNL1       -0.2832
      4 H          10.3152   39.6972   11.6926 H       1  UNL1        0.1549
      5 C           7.3653   42.4138    9.1009 C.ar    1  UNL1        0.0463
      6 C           7.8588   42.8341   10.3395 C.ar    1  UNL1        0.0156
      7 C           8.9072   42.1483   10.9549 C.ar    1  UNL1        0.0159
      8 C           9.4699   41.0178   10.3485 C.ar    1  UNL1        0.0501
      9 C           8.9605   40.5791    9.1232 C.ar    1  UNL1        0.0116
     10 C           7.9124   41.2601    8.4959 C.ar    1  UNL1       -0.0071
     11 C           7.3553   40.6834    7.2394 C.3     1  UNL1        0.0324
     12 C           4.9287   43.1322    9.0075 C.2     1  UNL1        0.2261
     13 O           4.5542   42.2698    9.8458 O.2     1  UNL1       -0.2748
     14 N           6.2759   43.1442    8.5225 N.am    1  UNL1       -0.2842
     15 H           6.4688   43.6968    7.7308 H       1  UNL1        0.1548
     16 C           4.6317   45.1030    7.5602 C.3     1  UNL1        0.0101
     17 C           3.9404   44.1074    8.4710 C.3     1  UNL1        0.0854
     18 C          12.4827   41.2508    9.5539 C.3     1  UNL1        0.1502
     19 S          13.1324   40.3081    8.1440 S.3     1  UNL1       -0.0641
     20 C          14.8285   40.5831    8.6558 C.ar    1  UNL1        0.2152
     21 N          15.4783   39.7699    9.5078 N.ar    1  UNL1       -0.1011
     22 N          16.6998   40.2746    9.6027 N.ar    1  UNL1       -0.0218
     23 N          16.8054   41.3513    8.8391 N.ar    1  UNL1       -0.0381
     24 N          15.6502   41.5685    8.2325 N.ar    1  UNL1       -0.1840
     25 C          15.3968   42.6630    7.3268 C.ar    1  UNL1        0.1139
     26 C          16.2375   43.7966    7.3080 C.ar    1  UNL1        0.1578
     27 C          15.9706   44.8578    6.4375 C.ar    1  UNL1        0.0312
     28 C          14.8686   44.8081    5.5823 C.ar    1  UNL1        0.0024
     29 C          14.0282   43.6948    5.5945 C.ar    1  UNL1        0.0017
     30 C          14.2913   42.6326    6.4623 C.ar    1  UNL1        0.0216
     31 F          17.3254   43.8757    8.1131 F       1  UNL1       -0.2026
@<TRIPOS>BOND
     1    16    17    1
     2    17    12    1
     3    12    14   am
     4     6     7   ar
     5     8     3    1
     6     8     9   ar
     7    18     1    1
     8    18    19    1
     9    20    19    1
    10    26    31    1
    11    26    27   ar
    12    28    29   ar
    13    30    25   ar
    14    10     5   ar
    15    11    10    1
    16    14     5    1
    17     3     1   am
    18    21    22   ar
    19    24    23   ar
    20    24    25    1
    21    24    20   ar
    22    12    13    2
    23     5     6   ar
    24     7     8   ar
    25     1     2    2
    26    20    21   ar
    27    25    26   ar
    28    27    28   ar
    29    29    30   ar
    30     9    10   ar
    31    22    23   ar
    32    14    15    1
    33     3     4    1
@<TRIPOS>MOLECULE
MolPort-000-061-005 1361298 MCULE-4841259958 PubChem-1455182 ZINC000001361298 ZINC01361298
 31 33 0 0 0
SMALL
GASTEIGER

@<TRIPOS>ATOM
      1 C          11.9974   39.1440    7.9129 C.2     1  UNL1        0.2376
      2 O          13.0173   38.4851    7.5833 O.2     1  UNL1       -0.2738
      3 N          11.0289   39.4759    6.9070 N.am    1  UNL1       -0.2832
      4 H          11.2014   39.1151    6.0074 H       1  UNL1        0.1549
      5 C           7.4681   41.7718    7.2616 C.ar    1  UNL1        0.0463
      6 C           8.6834   42.2971    7.7106 C.ar    1  UNL1        0.0156
      7 C           9.8610   41.5563    7.5980 C.ar    1  UNL1        0.0159
      8 C           9.8404   40.2679    7.0486 C.ar    1  UNL1        0.0501
      9 C           8.6226   39.7293    6.6239 C.ar    1  UNL1        0.0116
     10 C           7.4371   40.4635    6.7289 C.ar    1  UNL1       -0.0071
     11 C           6.1621   39.7934    6.3453 C.3     1  UNL1        0.0324
     12 C           5.5260   42.6830    8.6253 C.2     1  UNL1        0.2261
     13 O           5.7110   41.8830    9.5807 O.2     1  UNL1       -0.2748
     14 N           6.2868   42.5686    7.4177 N.am    1  UNL1       -0.2842
     15 H           5.9744   43.0763    6.6342 H       1  UNL1        0.1548
     16 C           4.6564   44.7807    7.6714 C.3     1  UNL1        0.0101
     17 C           4.4607   43.7167    8.7336 C.3     1  UNL1        0.0854
     18 C          11.8143   39.5060    9.3477 C.3     1  UNL1        0.1502
     19 S          12.7651   41.0056    9.7291 S.3     1  UNL1       -0.0641
     20 C          14.3091   40.0956    9.7754 C.ar    1  UNL1        0.2152
     21 N          14.4292   38.8836   10.3463 N.ar    1  UNL1       -0.1011
     22 N          15.6897   38.5294   10.1425 N.ar    1  UNL1       -0.0218
     23 N          16.3234   39.4780    9.4700 N.ar    1  UNL1       -0.0381
     24 N          15.4845   40.4707    9.2245 N.ar    1  UNL1       -0.1840
     25 C          15.8338   41.6785    8.5161 C.ar    1  UNL1        0.1139
     26 C          15.0705   42.1173    7.4130 C.ar    1  UNL1        0.1578
     27 C          15.4301   43.2801    6.7248 C.ar    1  UNL1        0.0312
     28 C          16.5491   44.0154    7.1194 C.ar    1  UNL1        0.0024
     29 C          17.3135   43.5896    8.2057 C.ar    1  UNL1        0.0017
     30 C          16.9576   42.4289    8.8960 C.ar    1  UNL1        0.0216
     31 F          13.9689   41.4384    7.0085 F       1  UNL1       -0.2026
@<TRIPOS>BOND
     1    16    17    1
     2    17    12    1
     3    12    14   am
     4     6     7   ar
     5     8     3    1
     6     8     9   ar
     7    18     1    1
     8    18    19    1
     9    20    19    1
    10    26    31    1
    11    26    27   ar
    12    28    29   ar
    13    30    25   ar
    14    10     5   ar
    15    11    10    1
    16    14     5    1
    17     3     1   am
    18    21    22   ar
    19    24    23   ar
    20    24    25    1
    21    24    20   ar
    22    12    13    2
    23     5     6   ar
    24     7     8   ar
    25     1     2    2
    26    20    21   ar
    27    25    26   ar
    28    27    28   ar
    29    29    30   ar
    30     9    10   ar
    31    22    23   ar
    32    14    15    1
    33     3     4    1
@<TRIPOS>MOLECULE
MolPort-000-061-005 1361298 MCULE-4841259958 PubChem-1455182 ZINC000001361298 ZINC01361298
 31 33 0 0 0
SMALL
GASTEIGER

@<TRIPOS>ATOM
      1 C           9.2863   38.9341    6.6256 C.2     1  UNL1        0.2376
      2 O           8.5426   37.9240    6.7249 O.2     1  UNL1       -0.2738
      3 N          10.6755   38.8107    6.9641 N.am    1  UNL1       -0.2832
      4 H          10.9800   37.9077    7.2114 H       1  UNL1        0.1549
      5 C          13.6586   41.8361    7.1194 C.ar    1  UNL1        0.0463
      6 C          12.6594   41.8923    6.1432 C.ar    1  UNL1        0.0156
      7 C          11.6718   40.9079    6.0818 C.ar    1  UNL1        0.0159
      8 C          11.6765   39.8391    6.9872 C.ar    1  UNL1        0.0501
      9 C          12.6898   39.7654    7.9469 C.ar    1  UNL1        0.0116
     10 C          13.6826   40.7476    8.0198 C.ar    1  UNL1       -0.0071
     11 C          14.7852   40.5570    9.0045 C.3     1  UNL1        0.0324
     12 C          14.9165   43.7657    6.0441 C.2     1  UNL1        0.2261
     13 O          14.4355   43.5527    4.8995 O.2     1  UNL1       -0.2748
     14 N          14.6581   42.8636    7.1256 N.am    1  UNL1       -0.2842
     15 H          15.2095   42.9562    7.9360 H       1  UNL1        0.1548
     16 C          17.1333   44.4798    6.8455 C.3     1  UNL1        0.0101
     17 C          15.8136   44.9347    6.2537 C.3     1  UNL1        0.0854
     18 C           8.7001   40.2039    6.1090 C.3     1  UNL1        0.1502
     19 S           7.0382   40.4402    6.8021 S.3     1  UNL1       -0.0641
     20 C           7.6937   41.1916    8.2922 C.ar    1  UNL1        0.2152
     21 N           8.8285   40.7778    8.8839 N.ar    1  UNL1       -0.1011
     22 N           8.9980   41.5938    9.9141 N.ar    1  UNL1       -0.0218
     23 N           8.0139   42.4788    9.9573 N.ar    1  UNL1       -0.0381
     24 N           7.1826   42.2532    8.9535 N.ar    1  UNL1       -0.1840
     25 C           5.9894   43.0220    8.6931 C.ar    1  UNL1        0.1139
     26 C           5.9816   44.0363    7.7117 C.ar    1  UNL1        0.1578
     27 C           4.8237   44.7855    7.4814 C.ar    1  UNL1        0.0312
     28 C           3.6663   44.5402    8.2221 C.ar    1  UNL1        0.0024
     29 C           3.6629   43.5430    9.1974 C.ar    1  UNL1        0.0017
     30 C           4.8173   42.7922    9.4305 C.ar    1  UNL1        0.0216
     31 F           7.0813   44.2947    6.9620 F       1  UNL1       -0.2026
@<TRIPOS>BOND
     1    16    17    1
     2    17    12    1
     3    12    14   am
     4     6     7   ar
     5     8     3    1
     6     8     9   ar
     7    18     1    1
     8    18    19    1
     9    20    19    1
    10    26    31    1
    11    26    27   ar
    12    28    29   ar
    13    30    25   ar
    14    10     5   ar
    15    11    10    1
    16    14     5    1
    17     3     1   am
    18    21    22   ar
    19    24    23   ar
    20    24    25    1
    21    24    20   ar
    22    12    13    2
    23     5     6   ar
    24     7     8   ar
    25     1     2    2
    26    20    21   ar
    27    25    26   ar
    28    27    28   ar
    29    29    30   ar
    30     9    10   ar
    31    22    23   ar
    32    14    15    1
    33     3     4    1
