@<TRIPOS>MOLECULE
MolPort-010-852-202 41108814 ChemDiv-G952-1317 MCULE-6535544697 PubChem-52103589 ZINC000041108814
 28 31 0 0 0
SMALL
GASTEIGER

@<TRIPOS>ATOM
      1 N           8.8940   42.4284    9.9943 N.am    1  UNL1       -0.2597
      2 C           9.0578   41.8734   11.3042 C.2     1  UNL1        0.2721
      3 O           8.1358   41.9306   12.1594 O.2     1  UNL1       -0.2707
      4 H           9.6667   42.3691    9.3871 H       1  UNL1        0.1569
      5 N           5.5791   43.3311    9.1242 N.ar    1  UNL1       -0.1881
      6 N           6.4728   42.5486    9.7063 N.ar    1  UNL1       -0.1400
      7 N           5.0270   45.0989    7.9258 N.ar    1  UNL1       -0.1202
      8 N           3.9046   44.4436    8.2501 N.ar    1  UNL1       -0.1310
      9 C           7.7159   43.0614    9.4806 C.ar    1  UNL1        0.1880
     10 C           6.0159   44.3799    8.4835 C.ar    1  UNL1        0.2195
     11 C           4.2536   43.3559    8.9909 C.ar    1  UNL1        0.1639
     12 S           7.6836   44.5153    8.5375 S.2     1  UNL1       -0.0111
     13 C           3.3104   42.3438    9.5512 C.3     1  UNL1        0.0606
     14 C           3.7937   40.9252    9.2174 C.3     1  UNL1        0.0076
     15 C           3.1911   39.9059   10.1792 C.3     1  UNL1        0.0004
     16 C           3.6145   40.1799   11.6295 C.3     1  UNL1        0.0000
     17 C           3.9464   41.6522   11.9071 C.3     1  UNL1        0.0004
     18 C           3.0888   42.5846   11.0535 C.3     1  UNL1        0.0076
     19 C          10.3397   41.2004   11.6562 C.3     1  UNL1        0.2897
     20 O          10.8590   40.5060   10.5262 O.3     1  UNL1       -0.4656
     21 C          12.2280   40.3647   10.2732 C.ar    1  UNL1        0.1387
     22 C          13.0507   39.5676   11.0865 C.ar    1  UNL1        0.0326
     23 C          14.4151   39.4483   10.8068 C.ar    1  UNL1       -0.0192
     24 C          15.2792   38.6029   11.6708 C.3     1  UNL1        0.0311
     25 C          14.9657   40.1248    9.7153 C.ar    1  UNL1       -0.0083
     26 C          14.1523   40.9205    8.9038 C.ar    1  UNL1       -0.0192
     27 C          14.7377   41.6399    7.7433 C.3     1  UNL1        0.0311
     28 C          12.7877   41.0400    9.1838 C.ar    1  UNL1        0.0326
@<TRIPOS>BOND
     1     5     6   ar
     2     7     8   ar
     3     1     2   am
     4     9    12   ar
     5     9     1    1
     6    10    12   ar
     7    10     5   ar
     8    11     5   ar
     9    13    11    1
    10    13    14    1
    11    14    15    1
    12    15    16    1
    13    16    17    1
    14    17    18    1
    15    18    13    1
    16    19     2    1
    17    19    20    1
    18    21    20    1
    19    22    23   ar
    20    24    23    1
    21    25    26   ar
    22    27    26    1
    23    28    21   ar
    24     9     6   ar
    25    10     7   ar
    26    11     8   ar
    27     2     3    2
    28    21    22   ar
    29    23    25   ar
    30    26    28   ar
    31     1     4    1
@<TRIPOS>MOLECULE
MolPort-010-852-202 41108814 ChemDiv-G952-1317 MCULE-6535544697 PubChem-52103589 ZINC000041108814
 28 31 0 0 0
SMALL
GASTEIGER

@<TRIPOS>ATOM
      1 N          10.8524   42.0800    8.0986 N.am    1  UNL1       -0.2597
      2 C          11.4599   41.0921    7.2585 C.2     1  UNL1        0.2721
      3 O          11.3783   39.8649    7.5269 O.2     1  UNL1       -0.2707
      4 H          10.9792   43.0215    7.8400 H       1  UNL1        0.1569
      5 N           8.2749   41.7059   10.5020 N.ar    1  UNL1       -0.1881
      6 N           8.7261   42.0075    9.2957 N.ar    1  UNL1       -0.1400
      7 N           8.5794   41.0480   12.5854 N.ar    1  UNL1       -0.1202
      8 N           7.2724   41.2795   12.4044 N.ar    1  UNL1       -0.1310
      9 C          10.0782   41.8327    9.2785 C.ar    1  UNL1        0.1880
     10 C           9.1429   41.3219   11.3967 C.ar    1  UNL1        0.2195
     11 C           7.0928   41.6828   11.1165 C.ar    1  UNL1        0.1639
     12 S          10.7071   41.2929   10.8007 S.2     1  UNL1       -0.0111
     13 C           5.7885   42.0552   10.4935 C.3     1  UNL1        0.0606
     14 C           5.5308   41.1967    9.2471 C.3     1  UNL1        0.0076
     15 C           4.0439   41.1648    8.9077 C.3     1  UNL1        0.0004
     16 C           3.2192   40.5419   10.0434 C.3     1  UNL1        0.0000
     17 C           3.8643   40.6922   11.4277 C.3     1  UNL1        0.0004
     18 C           4.6564   41.9942   11.5320 C.3     1  UNL1        0.0076
     19 C          12.1891   41.5249    6.0333 C.3     1  UNL1        0.2897
     20 O          13.1023   42.5721    6.3467 O.3     1  UNL1       -0.4656
     21 C          14.2845   42.3708    7.0679 C.ar    1  UNL1        0.1387
     22 C          14.4101   41.3314    8.0046 C.ar    1  UNL1        0.0326
     23 C          15.6049   41.1582    8.7092 C.ar    1  UNL1       -0.0192
     24 C          15.7309   40.0563    9.6980 C.3     1  UNL1        0.0311
     25 C          16.6797   42.0220    8.4839 C.ar    1  UNL1       -0.0083
     26 C          16.5598   43.0588    7.5544 C.ar    1  UNL1       -0.0192
     27 C          17.7026   43.9774    7.3149 C.3     1  UNL1        0.0311
     28 C          15.3647   43.2322    6.8499 C.ar    1  UNL1        0.0326
@<TRIPOS>BOND
     1     5     6   ar
     2     7     8   ar
     3     1     2   am
     4     9    12   ar
     5     9     1    1
     6    10    12   ar
     7    10     5   ar
     8    11     5   ar
     9    13    11    1
    10    13    14    1
    11    14    15    1
    12    15    16    1
    13    16    17    1
    14    17    18    1
    15    18    13    1
    16    19     2    1
    17    19    20    1
    18    21    20    1
    19    22    23   ar
    20    24    23    1
    21    25    26   ar
    22    27    26    1
    23    28    21   ar
    24     9     6   ar
    25    10     7   ar
    26    11     8   ar
    27     2     3    2
    28    21    22   ar
    29    23    25   ar
    30    26    28   ar
    31     1     4    1
@<TRIPOS>MOLECULE
MolPort-010-852-202 41108814 ChemDiv-G952-1317 MCULE-6535544697 PubChem-52103589 ZINC000041108814
 28 31 0 0 0
SMALL
GASTEIGER

@<TRIPOS>ATOM
      1 N          11.1765   42.0446    6.0524 N.am    1  UNL1       -0.2597
      2 C          10.2847   40.9243    6.0748 C.2     1  UNL1        0.2721
      3 O          10.6350   39.8185    6.5640 O.2     1  UNL1       -0.2707
      4 H          10.8427   42.8694    5.6311 H       1  UNL1        0.1569
      5 N          14.2256   41.3870    7.7349 N.ar    1  UNL1       -0.1881
      6 N          12.9784   41.0992    7.4012 N.ar    1  UNL1       -0.1400
      7 N          16.0105   42.6813    7.6622 N.ar    1  UNL1       -0.1202
      8 N          16.2851   41.6301    8.4458 N.ar    1  UNL1       -0.1310
      9 C          12.5069   42.0827    6.5829 C.ar    1  UNL1        0.1880
     10 C          14.7452   42.4831    7.2553 C.ar    1  UNL1        0.2195
     11 C          15.1800   40.8358    8.4837 C.ar    1  UNL1        0.1639
     12 S          13.6766   43.3254    6.2800 S.2     1  UNL1       -0.0111
     13 C          15.0480   39.5620    9.2506 C.3     1  UNL1        0.0606
     14 C          16.0300   39.5483   10.4307 C.3     1  UNL1        0.0076
     15 C          15.5778   38.5609   11.5019 C.3     1  UNL1        0.0004
     16 C          14.2078   38.9440   12.0801 C.3     1  UNL1        0.0000
     17 C          13.3299   39.7430   11.1075 C.3     1  UNL1        0.0004
     18 C          13.5849   39.3266    9.6601 C.3     1  UNL1        0.0076
     19 C           8.9091   41.0758    5.5227 C.3     1  UNL1        0.2897
     20 O           8.4059   42.3786    5.8025 O.3     1  UNL1       -0.4656
     21 C           7.5455   42.6573    6.8703 C.ar    1  UNL1        0.1387
     22 C           7.6550   41.9883    8.1008 C.ar    1  UNL1        0.0326
     23 C           6.7788   42.2898    9.1473 C.ar    1  UNL1       -0.0192
     24 C           6.9009   41.5787   10.4463 C.3     1  UNL1        0.0311
     25 C           5.7882   43.2591    8.9711 C.ar    1  UNL1       -0.0083
     26 C           5.6735   43.9267    7.7486 C.ar    1  UNL1       -0.0192
     27 C           4.6201   44.9573    7.5611 C.3     1  UNL1        0.0311
     28 C           6.5497   43.6249    6.7017 C.ar    1  UNL1        0.0326
@<TRIPOS>BOND
     1     5     6   ar
     2     7     8   ar
     3     1     2   am
     4     9    12   ar
     5     9     1    1
     6    10    12   ar
     7    10     5   ar
     8    11     5   ar
     9    13    11    1
    10    13    14    1
    11    14    15    1
    12    15    16    1
    13    16    17    1
    14    17    18    1
    15    18    13    1
    16    19     2    1
    17    19    20    1
    18    21    20    1
    19    22    23   ar
    20    24    23    1
    21    25    26   ar
    22    27    26    1
    23    28    21   ar
    24     9     6   ar
    25    10     7   ar
    26    11     8   ar
    27     2     3    2
    28    21    22   ar
    29    23    25   ar
    30    26    28   ar
    31     1     4    1
@<TRIPOS>MOLECULE
MolPort-010-852-202 41108814 ChemDiv-G952-1317 MCULE-6535544697 PubChem-52103589 ZINC000041108814
 28 31 0 0 0
SMALL
GASTEIGER

@<TRIPOS>ATOM
      1 N          11.2117   42.0527    6.0649 N.am    1  UNL1       -0.2597
      2 C          10.3145   40.9368    6.0822 C.2     1  UNL1        0.2721
      3 O          10.6583   39.8278    6.5686 O.2     1  UNL1       -0.2707
      4 H          10.8828   42.8805    5.6455 H       1  UNL1        0.1569
      5 N          14.2536   41.3762    7.7528 N.ar    1  UNL1       -0.1881
      6 N          13.0054   41.0959    7.4163 N.ar    1  UNL1       -0.1400
      7 N          16.0461   42.6603    7.6848 N.ar    1  UNL1       -0.1202
      8 N          16.3131   41.6069    8.4680 N.ar    1  UNL1       -0.1310
      9 C          12.5412   42.0828    6.5980 C.ar    1  UNL1        0.1880
     10 C          14.7805   42.4697    7.2752 C.ar    1  UNL1        0.2195
     11 C          15.2033   40.8188    8.5030 C.ar    1  UNL1        0.1639
     12 S          13.7187   43.3189    6.2985 S.2     1  UNL1       -0.0111
     13 C          15.0625   39.5452    9.2685 C.3     1  UNL1        0.0606
     14 C          16.0348   39.5292   10.4566 C.3     1  UNL1        0.0076
     15 C          15.5718   38.5425   11.5239 C.3     1  UNL1        0.0004
     16 C          14.1979   38.9283   12.0909 C.3     1  UNL1        0.0000
     17 C          13.3296   39.7292   11.1113 C.3     1  UNL1        0.0004
     18 C          13.5956   39.3126    9.6659 C.3     1  UNL1        0.0076
     19 C           8.9407   41.0967    5.5278 C.3     1  UNL1        0.2897
     20 O           8.4448   42.4024    5.8071 O.3     1  UNL1       -0.4656
     21 C           7.5673   42.6823    6.8606 C.ar    1  UNL1        0.1387
     22 C           6.5033   43.5880    6.7145 C.ar    1  UNL1        0.0326
     23 C           5.6451   43.8460    7.7872 C.ar    1  UNL1       -0.0192
     24 C           4.5214   44.8047    7.6254 C.3     1  UNL1        0.0311
     25 C           5.8450   43.2030    9.0115 C.ar    1  UNL1       -0.0083
     26 C           6.9029   42.3023    9.1630 C.ar    1  UNL1       -0.0192
     27 C           7.1155   41.6187   10.4647 C.3     1  UNL1        0.0311
     28 C           7.7614   42.0445    8.0901 C.ar    1  UNL1        0.0326
@<TRIPOS>BOND
     1     5     6   ar
     2     7     8   ar
     3     1     2   am
     4     9    12   ar
     5     9     1    1
     6    10    12   ar
     7    10     5   ar
     8    11     5   ar
     9    13    11    1
    10    13    14    1
    11    14    15    1
    12    15    16    1
    13    16    17    1
    14    17    18    1
    15    18    13    1
    16    19     2    1
    17    19    20    1
    18    21    20    1
    19    22    23   ar
    20    24    23    1
    21    25    26   ar
    22    27    26    1
    23    28    21   ar
    24     9     6   ar
    25    10     7   ar
    26    11     8   ar
    27     2     3    2
    28    21    22   ar
    29    23    25   ar
    30    26    28   ar
    31     1     4    1
@<TRIPOS>MOLECULE
MolPort-010-852-202 41108814 ChemDiv-G952-1317 MCULE-6535544697 PubChem-52103589 ZINC000041108814
 28 31 0 0 0
SMALL
GASTEIGER

@<TRIPOS>ATOM
      1 N          11.9197   42.3461    6.2777 N.am    1  UNL1       -0.2597
      2 C          11.0666   41.2228    6.0300 C.2     1  UNL1        0.2721
      3 O          11.4583   40.0448    6.2387 O.2     1  UNL1       -0.2707
      4 H          11.5546   43.2358    6.0674 H       1  UNL1        0.1569
      5 N          14.8870   41.5955    8.0645 N.ar    1  UNL1       -0.1881
      6 N          13.6080   41.4182    7.7772 N.ar    1  UNL1       -0.1400
      7 N          16.8209   42.6191    7.7838 N.ar    1  UNL1       -0.1202
      8 N          16.9719   41.6886    8.7355 N.ar    1  UNL1       -0.1310
      9 C          13.2525   42.3020    6.8016 C.ar    1  UNL1        0.1880
     10 C          15.5342   42.5192    7.4092 C.ar    1  UNL1        0.2195
     11 C          15.7753   41.0605    8.9011 C.ar    1  UNL1        0.1639
     12 S          14.5660   43.3152    6.2994 S.2     1  UNL1       -0.0111
     13 C          15.4945   39.9618    9.8717 C.3     1  UNL1        0.0606
     14 C          14.6901   38.8449    9.1915 C.3     1  UNL1        0.0076
     15 C          14.8393   37.5295    9.9494 C.3     1  UNL1        0.0004
     16 C          16.3003   37.0578    9.9785 C.3     1  UNL1        0.0000
     17 C          17.3191   38.2002    9.8687 C.3     1  UNL1        0.0004
     18 C          16.7964   39.4748   10.5286 C.3     1  UNL1        0.0076
     19 C           9.6820   41.4545    5.5308 C.3     1  UNL1        0.2897
     20 O           8.7377   40.8023    6.3744 O.3     1  UNL1       -0.4656
     21 C           7.8882   41.4870    7.2506 C.ar    1  UNL1        0.1387
     22 C           6.6971   40.9122    7.7242 C.ar    1  UNL1        0.0326
     23 C           5.8700   41.6236    8.5982 C.ar    1  UNL1       -0.0192
     24 C           4.6119   41.0091    9.0957 C.3     1  UNL1        0.0311
     25 C           6.2264   42.9125    9.0027 C.ar    1  UNL1       -0.0083
     26 C           7.4094   43.4901    8.5334 C.ar    1  UNL1       -0.0192
     27 C           7.7883   44.8607    8.9635 C.3     1  UNL1        0.0311
     28 C           8.2364   42.7786    7.6591 C.ar    1  UNL1        0.0326
@<TRIPOS>BOND
     1     5     6   ar
     2     7     8   ar
     3     1     2   am
     4     9    12   ar
     5     9     1    1
     6    10    12   ar
     7    10     5   ar
     8    11     5   ar
     9    13    11    1
    10    13    14    1
    11    14    15    1
    12    15    16    1
    13    16    17    1
    14    17    18    1
    15    18    13    1
    16    19     2    1
    17    19    20    1
    18    21    20    1
    19    22    23   ar
    20    24    23    1
    21    25    26   ar
    22    27    26    1
    23    28    21   ar
    24     9     6   ar
    25    10     7   ar
    26    11     8   ar
    27     2     3    2
    28    21    22   ar
    29    23    25   ar
    30    26    28   ar
    31     1     4    1
@<TRIPOS>MOLECULE
MolPort-010-852-202 41108814 ChemDiv-G952-1317 MCULE-6535544697 PubChem-52103589 ZINC000041108814
 28 31 0 0 0
SMALL
GASTEIGER

@<TRIPOS>ATOM
      1 N           9.9591   41.7756    9.6167 N.am    1  UNL1       -0.2597
      2 C          10.4610   40.6799    8.8432 C.2     1  UNL1        0.2721
      3 O           9.8071   40.2066    7.8772 O.2     1  UNL1       -0.2707
      4 H          10.5135   42.0761   10.3727 H       1  UNL1        0.1569
      5 N           6.5655   42.7630    9.3544 N.ar    1  UNL1       -0.1881
      6 N           7.5208   41.8924    9.6361 N.ar    1  UNL1       -0.1400
      7 N           5.8781   44.7433    8.6671 N.ar    1  UNL1       -0.1202
      8 N           4.8008   44.0005    8.9539 N.ar    1  UNL1       -0.1310
      9 C           8.7292   42.4773    9.3982 C.ar    1  UNL1        0.1880
     10 C           6.9250   43.9427    8.9293 C.ar    1  UNL1        0.2195
     11 C           5.2335   42.7815    9.3790 C.ar    1  UNL1        0.1639
     12 S           8.5878   44.1076    8.8270 S.2     1  UNL1       -0.0111
     13 C           4.3616   41.6423    9.7913 C.3     1  UNL1        0.0606
     14 C           4.9447   40.9486   11.0307 C.3     1  UNL1        0.0076
     15 C           3.8663   40.1647   11.7719 C.3     1  UNL1        0.0004
     16 C           2.7452   41.0853   12.2754 C.3     1  UNL1        0.0000
     17 C           2.5731   42.3609   11.4398 C.3     1  UNL1        0.0004
     18 C           2.9083   42.1109    9.9706 C.3     1  UNL1        0.0076
     19 C          11.7916   40.0992    9.1787 C.3     1  UNL1        0.2897
     20 O          12.6271   40.0811    8.0252 O.3     1  UNL1       -0.4656
     21 C          13.6037   41.0499    7.7682 C.ar    1  UNL1        0.1387
     22 C          13.4081   42.0598    6.8115 C.ar    1  UNL1        0.0326
     23 C          14.4043   43.0121    6.5782 C.ar    1  UNL1       -0.0192
     24 C          14.1903   44.0780    5.5652 C.3     1  UNL1        0.0311
     25 C          15.6013   42.9606    7.2970 C.ar    1  UNL1       -0.0083
     26 C          15.8021   41.9571    8.2489 C.ar    1  UNL1       -0.0192
     27 C          17.0748   41.9023    9.0131 C.3     1  UNL1        0.0311
     28 C          14.8057   41.0045    8.4820 C.ar    1  UNL1        0.0326
@<TRIPOS>BOND
     1     5     6   ar
     2     7     8   ar
     3     1     2   am
     4     9    12   ar
     5     9     1    1
     6    10    12   ar
     7    10     5   ar
     8    11     5   ar
     9    13    11    1
    10    13    14    1
    11    14    15    1
    12    15    16    1
    13    16    17    1
    14    17    18    1
    15    18    13    1
    16    19     2    1
    17    19    20    1
    18    21    20    1
    19    22    23   ar
    20    24    23    1
    21    25    26   ar
    22    27    26    1
    23    28    21   ar
    24     9     6   ar
    25    10     7   ar
    26    11     8   ar
    27     2     3    2
    28    21    22   ar
    29    23    25   ar
    30    26    28   ar
    31     1     4    1
@<TRIPOS>MOLECULE
MolPort-010-852-202 41108814 ChemDiv-G952-1317 MCULE-6535544697 PubChem-52103589 ZINC000041108814
 28 31 0 0 0
SMALL
GASTEIGER

@<TRIPOS>ATOM
      1 N          11.4296   40.6675    9.1877 N.am    1  UNL1       -0.2597
      2 C          12.5984   39.9310    9.5648 C.2     1  UNL1        0.2721
      3 O          12.7593   39.5164   10.7425 O.2     1  UNL1       -0.2707
      4 H          11.3842   40.9815    8.2557 H       1  UNL1        0.1569
      5 N           8.2485   41.4754   10.5249 N.ar    1  UNL1       -0.1881
      6 N           9.0709   41.1975    9.5268 N.ar    1  UNL1       -0.1400
      7 N           7.8261   41.7998   12.6657 N.ar    1  UNL1       -0.1202
      8 N           6.6862   41.9667   11.9822 N.ar    1  UNL1       -0.1310
      9 C          10.3199   40.9922   10.0337 C.ar    1  UNL1        0.1880
     10 C           8.7445   41.5014   11.7311 C.ar    1  UNL1        0.2195
     11 C           6.9549   41.7628   10.6631 C.ar    1  UNL1        0.1639
     12 S          10.3840   41.1640   11.7572 S.2     1  UNL1       -0.0111
     13 C           5.9681   41.8600    9.5474 C.3     1  UNL1        0.0606
     14 C           4.6044   42.3193   10.0828 C.3     1  UNL1        0.0076
     15 C           3.7584   42.9238    8.9666 C.3     1  UNL1        0.0004
     16 C           4.4284   44.1653    8.3603 C.3     1  UNL1        0.0000
     17 C           5.9580   44.1627    8.4841 C.3     1  UNL1        0.0004
     18 C           6.5176   42.7430    8.4150 C.3     1  UNL1        0.0076
     19 C          13.6372   39.6355    8.5382 C.3     1  UNL1        0.2897
     20 O          14.8469   40.3202    8.8490 O.3     1  UNL1       -0.4656
     21 C          15.2587   41.4877    8.1966 C.ar    1  UNL1        0.1387
     22 C          16.5056   42.0793    8.4587 C.ar    1  UNL1        0.0326
     23 C          16.8864   43.2464    7.7902 C.ar    1  UNL1       -0.0192
     24 C          18.2071   43.8663    8.0719 C.3     1  UNL1        0.0311
     25 C          16.0245   43.8298    6.8581 C.ar    1  UNL1       -0.0083
     26 C          14.7820   43.2465    6.5946 C.ar    1  UNL1       -0.0192
     27 C          13.8655   43.8670    5.6037 C.3     1  UNL1        0.0311
     28 C          14.4011   42.0794    7.2635 C.ar    1  UNL1        0.0326
@<TRIPOS>BOND
     1     5     6   ar
     2     7     8   ar
     3     1     2   am
     4     9    12   ar
     5     9     1    1
     6    10    12   ar
     7    10     5   ar
     8    11     5   ar
     9    13    11    1
    10    13    14    1
    11    14    15    1
    12    15    16    1
    13    16    17    1
    14    17    18    1
    15    18    13    1
    16    19     2    1
    17    19    20    1
    18    21    20    1
    19    22    23   ar
    20    24    23    1
    21    25    26   ar
    22    27    26    1
    23    28    21   ar
    24     9     6   ar
    25    10     7   ar
    26    11     8   ar
    27     2     3    2
    28    21    22   ar
    29    23    25   ar
    30    26    28   ar
    31     1     4    1
@<TRIPOS>MOLECULE
MolPort-010-852-202 41108814 ChemDiv-G952-1317 MCULE-6535544697 PubChem-52103589 ZINC000041108814
 28 31 0 0 0
SMALL
GASTEIGER

@<TRIPOS>ATOM
      1 N           9.5551   40.5331   10.1128 N.am    1  UNL1       -0.2597
      2 C           9.5637   41.4944   11.1742 C.2     1  UNL1        0.2721
      3 O          10.1839   42.5844   11.0652 O.2     1  UNL1       -0.2707
      4 H           9.0702   39.6926   10.2789 H       1  UNL1        0.1569
      5 N          11.6380   41.4193    7.3858 N.ar    1  UNL1       -0.1881
      6 N          11.2670   41.4822    8.6540 N.ar    1  UNL1       -0.1400
      7 N          11.4065   40.6660    5.3254 N.ar    1  UNL1       -0.1202
      8 N          12.4511   41.5042    5.3517 N.ar    1  UNL1       -0.1310
      9 C          10.1831   40.6746    8.8328 C.ar    1  UNL1        0.1880
     10 C          10.9492   40.6499    6.5889 C.ar    1  UNL1        0.2195
     11 C          12.5884   41.9627    6.6263 C.ar    1  UNL1        0.1639
     12 S           9.6906   39.8756    7.3757 S.2     1  UNL1       -0.0111
     13 C          13.6232   42.9294    7.0982 C.3     1  UNL1        0.0606
     14 C          14.9280   42.1911    7.4294 C.3     1  UNL1        0.0076
     15 C          16.1161   43.1474    7.3977 C.3     1  UNL1        0.0004
     16 C          16.3067   43.7643    6.0045 C.3     1  UNL1        0.0000
     17 C          15.0123   43.8458    5.1841 C.3     1  UNL1        0.0004
     18 C          13.7987   44.0715    6.0839 C.3     1  UNL1        0.0076
     19 C           8.8096   41.2052   12.4264 C.3     1  UNL1        0.2897
     20 O           7.5468   41.8637   12.4051 O.3     1  UNL1       -0.4656
     21 C           6.6340   41.7417   11.3515 C.ar    1  UNL1        0.1387
     22 C           5.4504   40.9964   11.4825 C.ar    1  UNL1        0.0326
     23 C           4.5598   40.8937   10.4100 C.ar    1  UNL1       -0.0192
     24 C           3.3094   40.1042   10.5559 C.3     1  UNL1        0.0311
     25 C           4.8463   41.5329    9.2011 C.ar    1  UNL1       -0.0083
     26 C           6.0231   42.2744    9.0645 C.ar    1  UNL1       -0.0192
     27 C           6.3278   42.9540    7.7791 C.3     1  UNL1        0.0311
     28 C           6.9139   42.3768   10.1371 C.ar    1  UNL1        0.0326
@<TRIPOS>BOND
     1     5     6   ar
     2     7     8   ar
     3     1     2   am
     4     9    12   ar
     5     9     1    1
     6    10    12   ar
     7    10     5   ar
     8    11     5   ar
     9    13    11    1
    10    13    14    1
    11    14    15    1
    12    15    16    1
    13    16    17    1
    14    17    18    1
    15    18    13    1
    16    19     2    1
    17    19    20    1
    18    21    20    1
    19    22    23   ar
    20    24    23    1
    21    25    26   ar
    22    27    26    1
    23    28    21   ar
    24     9     6   ar
    25    10     7   ar
    26    11     8   ar
    27     2     3    2
    28    21    22   ar
    29    23    25   ar
    30    26    28   ar
    31     1     4    1
@<TRIPOS>MOLECULE
MolPort-010-852-202 41108814 ChemDiv-G952-1317 MCULE-6535544697 PubChem-52103589 ZINC000041108814
 28 31 0 0 0
SMALL
GASTEIGER

@<TRIPOS>ATOM
      1 N          11.0514   41.4557    8.4484 N.am    1  UNL1       -0.2597
      2 C          10.8810   41.4470    7.0266 C.2     1  UNL1        0.2721
      3 O           9.7356   41.4337    6.5046 O.2     1  UNL1       -0.2707
      4 H          11.9765   41.4401    8.7849 H       1  UNL1        0.1569
      5 N           7.9580   41.6001   10.1719 N.ar    1  UNL1       -0.1881
      6 N           8.6964   41.6040    9.0744 N.ar    1  UNL1       -0.1400
      7 N           7.7303   41.5045   12.3640 N.ar    1  UNL1       -0.1202
      8 N           6.5126   41.6301   11.8199 N.ar    1  UNL1       -0.1310
      9 C          10.0075   41.4848    9.4294 C.ar    1  UNL1        0.1880
     10 C           8.5727   41.4905   11.3172 C.ar    1  UNL1        0.2195
     11 C           6.6617   41.6862   10.4678 C.ar    1  UNL1        0.1639
     12 S          10.2338   41.3740   11.1442 S.2     1  UNL1       -0.0111
     13 C           5.5576   41.8361    9.4746 C.3     1  UNL1        0.0606
     14 C           4.2910   42.3634   10.1639 C.3     1  UNL1        0.0076
     15 C           3.3523   43.0128    9.1518 C.3     1  UNL1        0.0004
     16 C           4.0094   44.2196    8.4665 C.3     1  UNL1        0.0000
     17 C           5.5408   44.1385    8.4107 C.3     1  UNL1        0.0004
     18 C           6.0153   42.6922    8.2823 C.3     1  UNL1        0.0076
     19 C          12.0839   41.4706    6.1476 C.3     1  UNL1        0.2897
     20 O          12.9386   42.5509    6.5098 O.3     1  UNL1       -0.4656
     21 C          14.1751   42.3746    7.1408 C.ar    1  UNL1        0.1387
     22 C          14.3890   41.3442    8.0714 C.ar    1  UNL1        0.0326
     23 C          15.6363   41.1960    8.6847 C.ar    1  UNL1       -0.0192
     24 C          15.8555   40.1034    9.6676 C.3     1  UNL1        0.0311
     25 C          16.6760   42.0760    8.3737 C.ar    1  UNL1       -0.0083
     26 C          16.4685   43.1040    7.4498 C.ar    1  UNL1       -0.0192
     27 C          17.5740   44.0397    7.1192 C.3     1  UNL1        0.0311
     28 C          15.2208   43.2523    6.8367 C.ar    1  UNL1        0.0326
@<TRIPOS>BOND
     1     5     6   ar
     2     7     8   ar
     3     1     2   am
     4     9    12   ar
     5     9     1    1
     6    10    12   ar
     7    10     5   ar
     8    11     5   ar
     9    13    11    1
    10    13    14    1
    11    14    15    1
    12    15    16    1
    13    16    17    1
    14    17    18    1
    15    18    13    1
    16    19     2    1
    17    19    20    1
    18    21    20    1
    19    22    23   ar
    20    24    23    1
    21    25    26   ar
    22    27    26    1
    23    28    21   ar
    24     9     6   ar
    25    10     7   ar
    26    11     8   ar
    27     2     3    2
    28    21    22   ar
    29    23    25   ar
    30    26    28   ar
    31     1     4    1
@<TRIPOS>MOLECULE
MolPort-010-852-202 41108814 ChemDiv-G952-1317 MCULE-6535544697 PubChem-52103589 ZINC000041108814
 28 31 0 0 0
SMALL
GASTEIGER

@<TRIPOS>ATOM
      1 N          11.1022   41.4288    8.4608 N.am    1  UNL1       -0.2597
      2 C          10.9290   41.4232    7.0393 C.2     1  UNL1        0.2721
      3 O           9.7825   41.4198    6.5195 O.2     1  UNL1       -0.2707
      4 H          12.0278   41.4054    8.7955 H       1  UNL1        0.1569
      5 N           8.0127   41.5871   10.1901 N.ar    1  UNL1       -0.1881
      6 N           8.7488   41.5836    9.0910 N.ar    1  UNL1       -0.1400
      7 N           7.7896   41.5049   12.3832 N.ar    1  UNL1       -0.1202
      8 N           6.5709   41.6287   11.8410 N.ar    1  UNL1       -0.1310
      9 C          10.0605   41.4650    9.4438 C.ar    1  UNL1        0.1880
     10 C           8.6297   41.4836   11.3346 C.ar    1  UNL1        0.2195
     11 C           6.7171   41.6766   10.4882 C.ar    1  UNL1        0.1639
     12 S          10.2903   41.3642   11.1588 S.2     1  UNL1       -0.0111
     13 C           5.6111   41.8218    9.4965 C.3     1  UNL1        0.0606
     14 C           4.3675   42.4180   10.1713 C.3     1  UNL1        0.0076
     15 C           3.4429   43.0559    9.1392 C.3     1  UNL1        0.0004
     16 C           4.1335   44.2115    8.4008 C.3     1  UNL1        0.0000
     17 C           5.6611   44.0781    8.3391 C.3     1  UNL1        0.0004
     18 C           6.0874   42.6130    8.2672 C.3     1  UNL1        0.0076
     19 C          12.1304   41.4384    6.1581 C.3     1  UNL1        0.2897
     20 O          12.9703   42.5405    6.4877 O.3     1  UNL1       -0.4656
     21 C          14.2160   42.3987    7.1093 C.ar    1  UNL1        0.1387
     22 C          15.2896   43.2558    6.8155 C.ar    1  UNL1        0.0326
     23 C          16.5217   43.0864    7.4537 C.ar    1  UNL1       -0.0192
     24 C          17.6527   43.9971    7.1386 C.3     1  UNL1        0.0311
     25 C          16.6891   42.0602    8.3870 C.ar    1  UNL1       -0.0083
     26 C          15.6250   41.2035    8.6820 C.ar    1  UNL1       -0.0192
     27 C          15.8031   40.1124    9.6743 C.3     1  UNL1        0.0311
     28 C          14.3929   41.3728    8.0434 C.ar    1  UNL1        0.0326
@<TRIPOS>BOND
     1     5     6   ar
     2     7     8   ar
     3     1     2   am
     4     9    12   ar
     5     9     1    1
     6    10    12   ar
     7    10     5   ar
     8    11     5   ar
     9    13    11    1
    10    13    14    1
    11    14    15    1
    12    15    16    1
    13    16    17    1
    14    17    18    1
    15    18    13    1
    16    19     2    1
    17    19    20    1
    18    21    20    1
    19    22    23   ar
    20    24    23    1
    21    25    26   ar
    22    27    26    1
    23    28    21   ar
    24     9     6   ar
    25    10     7   ar
    26    11     8   ar
    27     2     3    2
    28    21    22   ar
    29    23    25   ar
    30    26    28   ar
    31     1     4    1
