@<TRIPOS>MOLECULE
MolPort-003-117-060 8772077 CSSS03436996296 MCULE-9598085402 PubChem-16897556 ZINC000008772077 ZINC08772077
 27 29 0 0 0
SMALL
GASTEIGER

@<TRIPOS>ATOM
      1 C           6.5668   39.5160    6.1375 C.3     1  UNL1        0.0528
      2 C           7.5896   40.5430    6.4827 C.ar    1  UNL1        0.0717
      3 C           7.4780   41.4304    7.5609 C.ar    1  UNL1        0.0991
      4 C           9.5286   41.6423    6.2307 C.ar    1  UNL1        0.1665
      5 S           8.8582   42.4021    7.5672 S.2     1  UNL1       -0.0471
      6 N           8.7315   40.6617    5.7538 N.ar    1  UNL1       -0.2281
      7 C           6.3278   41.5651    8.4850 C.2     1  UNL1        0.2563
      8 C           4.1671   42.6786    9.0827 C.3     1  UNL1        0.0937
      9 C           3.5089   44.0552    9.1480 C.3     1  UNL1        0.0216
     10 C           3.6712   44.7643    7.8071 C.3     1  UNL1        0.0035
     11 C           5.1420   44.9151    7.3908 C.3     1  UNL1        0.0216
     12 C           6.1075   44.0609    8.2187 C.3     1  UNL1        0.0937
     13 N           5.5199   42.7540    8.5195 N.am    1  UNL1       -0.2756
     14 O           6.0377   40.6013    9.2448 O.2     1  UNL1       -0.2693
     15 C          11.9728   42.3057    6.4134 C.2     1  UNL1        0.3096
     16 N          10.7929   41.9995    5.6639 N.am    1  UNL1       -0.2482
     17 N          13.1709   42.6472    5.7051 N.am    1  UNL1       -0.2680
     18 O          11.9552   42.2751    7.6736 O.2     1  UNL1       -0.2521
     19 H          10.8559   42.0375    4.6821 H       1  UNL1        0.1583
     20 H          13.1150   42.6522    4.7222 H       1  UNL1        0.1564
     21 C          14.4429   42.9823    6.2769 C.ar    1  UNL1        0.0516
     22 C          15.0315   42.2069    7.2882 C.ar    1  UNL1        0.0156
     23 C          16.2730   42.5649    7.8214 C.ar    1  UNL1        0.0127
     24 C          16.9346   43.7007    7.3474 C.ar    1  UNL1        0.0578
     25 C          16.3549   44.4775    6.3408 C.ar    1  UNL1        0.0127
     26 C          15.1130   44.1181    5.8084 C.ar    1  UNL1        0.0156
     27 CL         18.4890   44.1501    8.0141 Cl      1  UNL1       -0.0822
@<TRIPOS>BOND
     1     1     2    1
     2     2     6   ar
     3     3     5   ar
     4     3     7    1
     5     4     5   ar
     6     4    16    1
     7    15    17   am
     8    22    23   ar
     9    24    27    1
    10    24    25   ar
    11    26    21   ar
    12     7    13   am
    13     8    13    1
    14     8     9    1
    15     9    10    1
    16    10    11    1
    17    11    12    1
    18    12    13    1
    19    16    15   am
    20    17    21    1
    21     2     3   ar
    22     4     6   ar
    23    15    18    2
    24    21    22   ar
    25    23    24   ar
    26    25    26   ar
    27     7    14    2
    28    16    19    1
    29    17    20    1
@<TRIPOS>MOLECULE
MolPort-003-117-060 8772077 CSSS03436996296 MCULE-9598085402 PubChem-16897556 ZINC000008772077 ZINC08772077
 27 29 0 0 0
SMALL
GASTEIGER

@<TRIPOS>ATOM
      1 C           7.4682   41.9178   11.6913 C.3     1  UNL1        0.0528
      2 C           7.9629   41.9774   10.2871 C.ar    1  UNL1        0.0717
      3 C           7.2244   42.4972    9.2162 C.ar    1  UNL1        0.0991
      4 C           9.4670   41.6790    8.6499 C.ar    1  UNL1        0.1665
      5 S           8.1746   42.3621    7.8276 S.2     1  UNL1       -0.0471
      6 N           9.2072   41.5318    9.9672 N.ar    1  UNL1       -0.2281
      7 C           5.8307   42.9982    9.2584 C.2     1  UNL1        0.2563
      8 C           3.5695   42.9799   10.3318 C.3     1  UNL1        0.0937
      9 C           2.5234   42.0237   10.9009 C.3     1  UNL1        0.0216
     10 C           3.1769   41.1001   11.9242 C.3     1  UNL1        0.0035
     11 C           4.3449   40.2953   11.3350 C.3     1  UNL1        0.0216
     12 C           4.8168   40.8039    9.9691 C.3     1  UNL1        0.0937
     13 N           4.7831   42.2667    9.9178 N.am    1  UNL1       -0.2756
     14 O           5.5630   44.1071    8.7207 O.2     1  UNL1       -0.2693
     15 C          11.9226   42.0240    8.1035 C.2     1  UNL1        0.3096
     16 N          10.6943   41.2941    8.0232 N.am    1  UNL1       -0.2482
     17 N          13.0746   41.5131    7.4211 N.am    1  UNL1       -0.2680
     18 O          11.9865   43.0965    8.7629 O.2     1  UNL1       -0.2521
     19 H          10.6937   40.4627    7.4960 H       1  UNL1        0.1583
     20 H          12.9550   40.6712    6.9249 H       1  UNL1        0.1564
     21 C          14.3834   42.0988    7.3847 C.ar    1  UNL1        0.0516
     22 C          14.7016   43.1557    6.5175 C.ar    1  UNL1        0.0156
     23 C          15.9884   43.7013    6.5104 C.ar    1  UNL1        0.0127
     24 C          16.9662   43.1939    7.3701 C.ar    1  UNL1        0.0578
     25 C          16.6567   42.1419    8.2362 C.ar    1  UNL1        0.0127
     26 C          15.3691   41.5972    8.2422 C.ar    1  UNL1        0.0156
     27 CL         18.5778   43.8760    7.3621 Cl      1  UNL1       -0.0822
@<TRIPOS>BOND
     1     1     2    1
     2     2     6   ar
     3     3     5   ar
     4     3     7    1
     5     4     5   ar
     6     4    16    1
     7    15    17   am
     8    22    23   ar
     9    24    27    1
    10    24    25   ar
    11    26    21   ar
    12     7    13   am
    13     8    13    1
    14     8     9    1
    15     9    10    1
    16    10    11    1
    17    11    12    1
    18    12    13    1
    19    16    15   am
    20    17    21    1
    21     2     3   ar
    22     4     6   ar
    23    15    18    2
    24    21    22   ar
    25    23    24   ar
    26    25    26   ar
    27     7    14    2
    28    16    19    1
    29    17    20    1
@<TRIPOS>MOLECULE
MolPort-003-117-060 8772077 CSSS03436996296 MCULE-9598085402 PubChem-16897556 ZINC000008772077 ZINC08772077
 27 29 0 0 0
SMALL
GASTEIGER

@<TRIPOS>ATOM
      1 C          11.3907   39.1096    8.9114 C.3     1  UNL1        0.0528
      2 C          10.3803   40.1956    8.7701 C.ar    1  UNL1        0.0717
      3 C          10.1902   40.9434    7.6009 C.ar    1  UNL1        0.0991
      4 C           8.7067   41.5152    9.4695 C.ar    1  UNL1        0.1665
      5 S           8.9503   42.0495    7.8985 S.2     1  UNL1       -0.0471
      6 N           9.5504   40.5134    9.7994 N.ar    1  UNL1       -0.2281
      7 C          10.9804   40.8539    6.3509 C.2     1  UNL1        0.2563
      8 C          11.1334   40.1758    3.9462 C.3     1  UNL1        0.0937
      9 C          10.7789   39.0288    3.0020 C.3     1  UNL1        0.0216
     10 C           9.3037   38.6737    3.1591 C.3     1  UNL1        0.0035
     11 C           8.9374   38.2876    4.5999 C.3     1  UNL1        0.0216
     12 C          10.0185   38.6407    5.6264 C.3     1  UNL1        0.0937
     13 N          10.6411   39.9266    5.3058 N.am    1  UNL1       -0.2756
     14 O          11.9628   41.6285    6.1916 O.2     1  UNL1       -0.2693
     15 C           6.3286   41.7474   10.3287 C.2     1  UNL1        0.3096
     16 N           7.7239   42.0641   10.3528 N.am    1  UNL1       -0.2482
     17 N           5.4615   42.3780   11.2796 N.am    1  UNL1       -0.2680
     18 O           5.8736   40.9286    9.4849 O.2     1  UNL1       -0.2521
     19 H           8.0314   42.7096   11.0295 H       1  UNL1        0.1583
     20 H           5.8820   43.0068   11.9096 H       1  UNL1        0.1564
     21 C           4.0455   42.1898   11.4103 C.ar    1  UNL1        0.0516
     22 C           3.2405   41.8204   10.3213 C.ar    1  UNL1        0.0156
     23 C           1.8636   41.6460   10.4872 C.ar    1  UNL1        0.0127
     24 C           1.2819   41.8397   11.7428 C.ar    1  UNL1        0.0578
     25 C           2.0771   42.2075   12.8315 C.ar    1  UNL1        0.0127
     26 C           3.4542   42.3816   12.6641 C.ar    1  UNL1        0.0156
     27 CL         -0.4418   41.6218   11.9518 Cl      1  UNL1       -0.0822
@<TRIPOS>BOND
     1     1     2    1
     2     2     6   ar
     3     3     5   ar
     4     3     7    1
     5     4     5   ar
     6     4    16    1
     7    15    17   am
     8    22    23   ar
     9    24    27    1
    10    24    25   ar
    11    26    21   ar
    12     7    13   am
    13     8    13    1
    14     8     9    1
    15     9    10    1
    16    10    11    1
    17    11    12    1
    18    12    13    1
    19    16    15   am
    20    17    21    1
    21     2     3   ar
    22     4     6   ar
    23    15    18    2
    24    21    22   ar
    25    23    24   ar
    26    25    26   ar
    27     7    14    2
    28    16    19    1
    29    17    20    1
@<TRIPOS>MOLECULE
MolPort-003-117-060 8772077 CSSS03436996296 MCULE-9598085402 PubChem-16897556 ZINC000008772077 ZINC08772077
 27 29 0 0 0
SMALL
GASTEIGER

@<TRIPOS>ATOM
      1 C          15.3497   40.7419    8.5872 C.3     1  UNL1        0.0528
      2 C          13.9907   41.3526    8.5691 C.ar    1  UNL1        0.0717
      3 C          13.5634   42.2882    7.6182 C.ar    1  UNL1        0.0991
      4 C          11.8943   41.6628    9.3040 C.ar    1  UNL1        0.1665
      5 S          11.9675   42.6972    7.9858 S.2     1  UNL1       -0.0471
      6 N          13.0585   41.0058    9.4964 N.ar    1  UNL1       -0.2281
      7 C          14.3758   42.8866    6.5332 C.2     1  UNL1        0.2563
      8 C          16.6150   43.5760    5.6521 C.3     1  UNL1        0.0937
      9 C          17.9051   44.2735    6.0784 C.3     1  UNL1        0.0216
     10 C          18.4435   43.6224    7.3485 C.3     1  UNL1        0.0035
     11 C          17.4332   43.6548    8.5050 C.3     1  UNL1        0.0216
     12 C          16.0120   44.0287    8.0715 C.3     1  UNL1        0.0937
     13 N          15.6863   43.4252    6.7780 N.am    1  UNL1       -0.2756
     14 O          13.9129   42.9023    5.3602 O.2     1  UNL1       -0.2693
     15 C           9.3837   41.5187    9.6556 C.2     1  UNL1        0.3096
     16 N          10.7347   41.5045   10.1271 N.am    1  UNL1       -0.2482
     17 N           8.3209   41.3463   10.6014 N.am    1  UNL1       -0.2680
     18 O           9.1363   41.6805    8.4300 O.2     1  UNL1       -0.2521
     19 H          10.8773   41.3757   11.0927 H       1  UNL1        0.1583
     20 H           8.5842   41.2251   11.5423 H       1  UNL1        0.1564
     21 C           6.9141   41.3318   10.3220 C.ar    1  UNL1        0.0516
     22 C           6.4166   41.2548    9.0117 C.ar    1  UNL1        0.0156
     23 C           5.0385   41.2428    8.7784 C.ar    1  UNL1        0.0127
     24 C           4.1482   41.3079    9.8533 C.ar    1  UNL1        0.0578
     25 C           4.6361   41.3846   11.1605 C.ar    1  UNL1        0.0127
     26 C           6.0149   41.3965   11.3924 C.ar    1  UNL1        0.0156
     27 CL          2.4226   41.2930    9.5626 Cl      1  UNL1       -0.0822
@<TRIPOS>BOND
     1     1     2    1
     2     2     6   ar
     3     3     5   ar
     4     3     7    1
     5     4     5   ar
     6     4    16    1
     7    15    17   am
     8    22    23   ar
     9    24    27    1
    10    24    25   ar
    11    26    21   ar
    12     7    13   am
    13     8    13    1
    14     8     9    1
    15     9    10    1
    16    10    11    1
    17    11    12    1
    18    12    13    1
    19    16    15   am
    20    17    21    1
    21     2     3   ar
    22     4     6   ar
    23    15    18    2
    24    21    22   ar
    25    23    24   ar
    26    25    26   ar
    27     7    14    2
    28    16    19    1
    29    17    20    1
@<TRIPOS>MOLECULE
MolPort-003-117-060 8772077 CSSS03436996296 MCULE-9598085402 PubChem-16897556 ZINC000008772077 ZINC08772077
 27 29 0 0 0
SMALL
GASTEIGER

@<TRIPOS>ATOM
      1 C           5.8483   42.7542    7.9974 C.3     1  UNL1        0.0528
      2 C           7.1994   42.2269    8.3388 C.ar    1  UNL1        0.0717
      3 C           7.5368   41.6797    9.5834 C.ar    1  UNL1        0.0991
      4 C           9.3415   41.7081    7.9215 C.ar    1  UNL1        0.1665
      5 S           9.1585   41.2164    9.5145 S.2     1  UNL1       -0.0471
      6 N           8.2025   42.2335    7.4206 N.ar    1  UNL1       -0.2281
      7 C           6.6687   41.5940   10.7809 C.2     1  UNL1        0.2563
      8 C           4.3814   41.3442   11.7667 C.3     1  UNL1        0.0937
      9 C           2.9462   41.8387   11.5989 C.3     1  UNL1        0.0216
     10 C           2.5028   41.6423   10.1526 C.3     1  UNL1        0.0035
     11 C           3.4168   42.3623    9.1498 C.3     1  UNL1        0.0216
     12 C           4.7372   42.8468    9.7572 C.3     1  UNL1        0.0937
     13 N           5.2592   41.8704   10.7152 N.am    1  UNL1       -0.2756
     14 O           7.1774   41.2471   11.8815 O.2     1  UNL1       -0.2693
     15 C          11.8186   42.1517    7.5829 C.2     1  UNL1        0.3096
     16 N          10.5639   41.5884    7.1877 N.am    1  UNL1       -0.2482
     17 N          12.9618   41.9472    6.7433 N.am    1  UNL1       -0.2680
     18 O          11.9131   42.8153    8.6507 O.2     1  UNL1       -0.2521
     19 H          10.5400   41.0789    6.3456 H       1  UNL1        0.1583
     20 H          12.8180   41.4199    5.9244 H       1  UNL1        0.1564
     21 C          14.2934   42.4298    6.9698 C.ar    1  UNL1        0.0516
     22 C          15.1543   41.8282    7.9011 C.ar    1  UNL1        0.0156
     23 C          16.4458   42.3266    8.0946 C.ar    1  UNL1        0.0127
     24 C          16.8855   43.4300    7.3586 C.ar    1  UNL1        0.0578
     25 C          16.0340   44.0340    6.4298 C.ar    1  UNL1        0.0127
     26 C          14.7425   43.5344    6.2372 C.ar    1  UNL1        0.0156
     27 CL         18.5022   44.0550    7.6000 Cl      1  UNL1       -0.0822
@<TRIPOS>BOND
     1     1     2    1
     2     2     6   ar
     3     3     5   ar
     4     3     7    1
     5     4     5   ar
     6     4    16    1
     7    15    17   am
     8    22    23   ar
     9    24    27    1
    10    24    25   ar
    11    26    21   ar
    12     7    13   am
    13     8    13    1
    14     8     9    1
    15     9    10    1
    16    10    11    1
    17    11    12    1
    18    12    13    1
    19    16    15   am
    20    17    21    1
    21     2     3   ar
    22     4     6   ar
    23    15    18    2
    24    21    22   ar
    25    23    24   ar
    26    25    26   ar
    27     7    14    2
    28    16    19    1
    29    17    20    1
@<TRIPOS>MOLECULE
MolPort-003-117-060 8772077 CSSS03436996296 MCULE-9598085402 PubChem-16897556 ZINC000008772077 ZINC08772077
 27 29 0 0 0
SMALL
GASTEIGER

@<TRIPOS>ATOM
      1 C          13.3732   39.9840   10.6327 C.3     1  UNL1        0.0528
      2 C          12.5640   40.5241    9.5041 C.ar    1  UNL1        0.0717
      3 C          13.1107   41.1388    8.3703 C.ar    1  UNL1        0.0991
      4 C          10.6634   40.9678    8.3986 C.ar    1  UNL1        0.1665
      5 S          11.8304   41.5878    7.3659 S.2     1  UNL1       -0.0471
      6 N          11.2077   40.4269    9.5101 N.ar    1  UNL1       -0.2281
      7 C          14.5419   41.4288    8.1200 C.2     1  UNL1        0.2563
      8 C          16.3088   43.0133    7.3245 C.3     1  UNL1        0.0937
      9 C          16.6129   43.9979    6.1971 C.3     1  UNL1        0.0216
     10 C          15.4584   44.9846    6.0540 C.3     1  UNL1        0.0035
     11 C          14.1153   44.2900    5.7839 C.3     1  UNL1        0.0216
     12 C          14.1430   42.7781    6.0299 C.3     1  UNL1        0.0937
     13 N          14.9569   42.4561    7.2036 N.am    1  UNL1       -0.2756
     14 O          15.4176   40.7714    8.7456 O.2     1  UNL1       -0.2693
     15 C           8.2455   41.2934    9.1025 C.2     1  UNL1        0.3096
     16 N           9.2586   41.0150    8.1309 N.am    1  UNL1       -0.2482
     17 N           6.8746   41.3074    8.6851 N.am    1  UNL1       -0.2680
     18 O           8.5566   41.5215   10.3027 O.2     1  UNL1       -0.2521
     19 H           8.9664   40.8426    7.2067 H       1  UNL1        0.1583
     20 H           6.7020   41.1210    7.7340 H       1  UNL1        0.1564
     21 C           5.7273   41.5642    9.5069 C.ar    1  UNL1        0.0516
     22 C           5.5683   40.9705   10.7689 C.ar    1  UNL1        0.0156
     23 C           4.4364   41.2449   11.5416 C.ar    1  UNL1        0.0127
     24 C           3.4555   42.1147   11.0581 C.ar    1  UNL1        0.0578
     25 C           3.6070   42.7095    9.8027 C.ar    1  UNL1        0.0127
     26 C           4.7399   42.4341    9.0309 C.ar    1  UNL1        0.0156
     27 CL          2.0378   42.4592   12.0245 Cl      1  UNL1       -0.0822
@<TRIPOS>BOND
     1     1     2    1
     2     2     6   ar
     3     3     5   ar
     4     3     7    1
     5     4     5   ar
     6     4    16    1
     7    15    17   am
     8    22    23   ar
     9    24    27    1
    10    24    25   ar
    11    26    21   ar
    12     7    13   am
    13     8    13    1
    14     8     9    1
    15     9    10    1
    16    10    11    1
    17    11    12    1
    18    12    13    1
    19    16    15   am
    20    17    21    1
    21     2     3   ar
    22     4     6   ar
    23    15    18    2
    24    21    22   ar
    25    23    24   ar
    26    25    26   ar
    27     7    14    2
    28    16    19    1
    29    17    20    1
@<TRIPOS>MOLECULE
MolPort-003-117-060 8772077 CSSS03436996296 MCULE-9598085402 PubChem-16897556 ZINC000008772077 ZINC08772077
 27 29 0 0 0
SMALL
GASTEIGER

@<TRIPOS>ATOM
      1 C           6.4899   42.9339    5.7756 C.3     1  UNL1        0.0528
      2 C           7.7905   42.3325    6.1839 C.ar    1  UNL1        0.0717
      3 C           7.9407   41.4372    7.2507 C.ar    1  UNL1        0.0991
      4 C           9.9985   41.9702    6.0258 C.ar    1  UNL1        0.1665
      5 S           9.5741   41.0211    7.3419 S.2     1  UNL1       -0.0471
      6 N           8.9339   42.6184    5.5055 N.ar    1  UNL1       -0.2281
      7 C           6.8866   40.9923    8.1921 C.2     1  UNL1        0.2563
      8 C           5.8509   41.0979   10.4684 C.3     1  UNL1        0.0937
      9 C           6.2190   41.1081   11.9507 C.3     1  UNL1        0.0216
     10 C           7.2566   42.1952   12.2130 C.3     1  UNL1        0.0035
     11 C           8.5266   42.0185   11.3674 C.3     1  UNL1        0.0216
     12 C           8.3720   41.0070   10.2272 C.3     1  UNL1        0.0937
     13 N           7.0454   41.1094    9.6163 N.am    1  UNL1       -0.2756
     14 O           5.8130   40.5194    7.7291 O.2     1  UNL1       -0.2693
     15 C          12.4605   42.5392    6.2758 C.2     1  UNL1        0.3096
     16 N          11.3334   42.0807    5.5227 N.am    1  UNL1       -0.2482
     17 N          13.7414   42.5958    5.6354 N.am    1  UNL1       -0.2680
     18 O          12.3257   42.8866    7.4802 O.2     1  UNL1       -0.2521
     19 H          11.4885   41.8212    4.5857 H       1  UNL1        0.1583
     20 H          13.7759   42.3102    4.6939 H       1  UNL1        0.1564
     21 C          14.9784   43.0244    6.2215 C.ar    1  UNL1        0.0516
     22 C          15.7335   44.0762    5.6792 C.ar    1  UNL1        0.0156
     23 C          16.9345   44.4662    6.2783 C.ar    1  UNL1        0.0127
     24 C          17.3892   43.8075    7.4236 C.ar    1  UNL1        0.0578
     25 C          16.6428   42.7596    7.9692 C.ar    1  UNL1        0.0127
     26 C          15.4416   42.3706    7.3688 C.ar    1  UNL1        0.0156
     27 CL         18.8929   44.2948    8.1746 Cl      1  UNL1       -0.0822
@<TRIPOS>BOND
     1     1     2    1
     2     2     6   ar
     3     3     5   ar
     4     3     7    1
     5     4     5   ar
     6     4    16    1
     7    15    17   am
     8    22    23   ar
     9    24    27    1
    10    24    25   ar
    11    26    21   ar
    12     7    13   am
    13     8    13    1
    14     8     9    1
    15     9    10    1
    16    10    11    1
    17    11    12    1
    18    12    13    1
    19    16    15   am
    20    17    21    1
    21     2     3   ar
    22     4     6   ar
    23    15    18    2
    24    21    22   ar
    25    23    24   ar
    26    25    26   ar
    27     7    14    2
    28    16    19    1
    29    17    20    1
@<TRIPOS>MOLECULE
MolPort-003-117-060 8772077 CSSS03436996296 MCULE-9598085402 PubChem-16897556 ZINC000008772077 ZINC08772077
 27 29 0 0 0
SMALL
GASTEIGER

@<TRIPOS>ATOM
      1 C           6.5580   39.7228    6.3235 C.3     1  UNL1        0.0528
      2 C           7.6587   40.3932    7.0713 C.ar    1  UNL1        0.0717
      3 C           7.5030   41.5782    7.8019 C.ar    1  UNL1        0.0991
      4 C           9.7574   40.6106    7.8328 C.ar    1  UNL1        0.1665
      5 S           9.0018   41.9624    8.4768 S.2     1  UNL1       -0.0471
      6 N           8.9090   39.8591    7.0981 N.ar    1  UNL1       -0.2281
      7 C           6.2773   42.4041    7.9044 C.2     1  UNL1        0.2563
      8 C           4.3720   43.2651    9.2807 C.3     1  UNL1        0.0937
      9 C           3.3316   42.8086   10.3014 C.3     1  UNL1        0.0216
     10 C           4.0256   42.0852   11.4512 C.3     1  UNL1        0.0035
     11 C           4.8502   40.8780   10.9801 C.3     1  UNL1        0.0216
     12 C           5.0709   40.8361    9.4646 C.3     1  UNL1        0.0937
     13 N           5.2986   42.1816    8.9340 N.am    1  UNL1       -0.2756
     14 O           6.1006   43.3414    7.0793 O.2     1  UNL1       -0.2693
     15 C          12.2210   41.2233    7.8832 C.2     1  UNL1        0.3096
     16 N          11.1391   40.2994    8.0362 N.am    1  UNL1       -0.2482
     17 N          13.5580   40.7659    8.1224 N.am    1  UNL1       -0.2680
     18 O          11.9988   42.4170    7.5437 O.2     1  UNL1       -0.2521
     19 H          11.3627   39.3782    8.3020 H       1  UNL1        0.1583
     20 H          13.6603   39.8224    8.3842 H       1  UNL1        0.1564
     21 C          14.7627   41.5377    8.0207 C.ar    1  UNL1        0.0516
     22 C          15.8856   41.2729    8.8205 C.ar    1  UNL1        0.0156
     23 C          17.0426   42.0467    8.6930 C.ar    1  UNL1        0.0127
     24 C          17.0851   43.0907    7.7652 C.ar    1  UNL1        0.0578
     25 C          15.9712   43.3601    6.9656 C.ar    1  UNL1        0.0127
     26 C          14.8146   42.5852    7.0943 C.ar    1  UNL1        0.0156
     27 CL         18.5331   44.0603    7.6046 Cl      1  UNL1       -0.0822
@<TRIPOS>BOND
     1     1     2    1
     2     2     6   ar
     3     3     5   ar
     4     3     7    1
     5     4     5   ar
     6     4    16    1
     7    15    17   am
     8    22    23   ar
     9    24    27    1
    10    24    25   ar
    11    26    21   ar
    12     7    13   am
    13     8    13    1
    14     8     9    1
    15     9    10    1
    16    10    11    1
    17    11    12    1
    18    12    13    1
    19    16    15   am
    20    17    21    1
    21     2     3   ar
    22     4     6   ar
    23    15    18    2
    24    21    22   ar
    25    23    24   ar
    26    25    26   ar
    27     7    14    2
    28    16    19    1
    29    17    20    1
@<TRIPOS>MOLECULE
MolPort-003-117-060 8772077 CSSS03436996296 MCULE-9598085402 PubChem-16897556 ZINC000008772077 ZINC08772077
 27 29 0 0 0
SMALL
GASTEIGER

@<TRIPOS>ATOM
      1 C          14.5933   39.2977   11.2162 C.3     1  UNL1        0.0528
      2 C          13.5711   39.8729   10.2973 C.ar    1  UNL1        0.0717
      3 C          13.8758   40.6459    9.1695 C.ar    1  UNL1        0.0991
      4 C          11.4863   40.2510    9.5610 C.ar    1  UNL1        0.1665
      5 S          12.4175   41.0755    8.4359 S.2     1  UNL1       -0.0471
      6 N          12.2453   39.6527   10.5045 N.ar    1  UNL1       -0.2281
      7 C          15.2206   41.0887    8.7330 C.2     1  UNL1        0.2563
      8 C          16.6740   42.8306    7.6751 C.3     1  UNL1        0.0937
      9 C          16.7182   43.7925    6.4896 C.3     1  UNL1        0.0216
     10 C          15.4442   44.6312    6.4631 C.3     1  UNL1        0.0035
     11 C          14.1721   43.7740    6.3846 C.3     1  UNL1        0.0216
     12 C          14.4117   42.2880    6.6702 C.3     1  UNL1        0.0937
     13 N          15.3946   42.1153    7.7415 N.am    1  UNL1       -0.2756
     14 O          16.2386   40.5659    9.2631 O.2     1  UNL1       -0.2693
     15 C           9.2017   41.2900    9.1749 C.2     1  UNL1        0.3096
     16 N          10.0569   40.1969    9.5237 N.am    1  UNL1       -0.2482
     17 N           7.7833   41.0854    9.1811 N.am    1  UNL1       -0.2680
     18 O           9.6903   42.4111    8.8687 O.2     1  UNL1       -0.2521
     19 H           9.6286   39.3415    9.7561 H       1  UNL1        0.1583
     20 H           7.4692   40.1861    9.4298 H       1  UNL1        0.1564
     21 C           6.7729   42.0526    8.8631 C.ar    1  UNL1        0.0516
     22 C           5.6646   42.2719    9.6961 C.ar    1  UNL1        0.0156
     23 C           4.6999   43.2235    9.3532 C.ar    1  UNL1        0.0127
     24 C           4.8364   43.9623    8.1751 C.ar    1  UNL1        0.0578
     25 C           5.9372   43.7494    7.3409 C.ar    1  UNL1        0.0127
     26 C           6.9013   42.7973    7.6852 C.ar    1  UNL1        0.0156
     27 CL          3.6293   45.1540    7.7446 Cl      1  UNL1       -0.0822
@<TRIPOS>BOND
     1     1     2    1
     2     2     6   ar
     3     3     5   ar
     4     3     7    1
     5     4     5   ar
     6     4    16    1
     7    15    17   am
     8    22    23   ar
     9    24    27    1
    10    24    25   ar
    11    26    21   ar
    12     7    13   am
    13     8    13    1
    14     8     9    1
    15     9    10    1
    16    10    11    1
    17    11    12    1
    18    12    13    1
    19    16    15   am
    20    17    21    1
    21     2     3   ar
    22     4     6   ar
    23    15    18    2
    24    21    22   ar
    25    23    24   ar
    26    25    26   ar
    27     7    14    2
    28    16    19    1
    29    17    20    1
@<TRIPOS>MOLECULE
MolPort-003-117-060 8772077 CSSS03436996296 MCULE-9598085402 PubChem-16897556 ZINC000008772077 ZINC08772077
 27 29 0 0 0
SMALL
GASTEIGER

@<TRIPOS>ATOM
      1 C          10.7556   40.8217   11.6871 C.3     1  UNL1        0.0528
      2 C          11.2403   40.5226   10.3103 C.ar    1  UNL1        0.0717
      3 C          11.1606   41.4202    9.2378 C.ar    1  UNL1        0.0991
      4 C          12.1973   39.2565    8.7251 C.ar    1  UNL1        0.1665
      5 S          11.8269   40.6605    7.8857 S.2     1  UNL1       -0.0471
      6 N          11.8218   39.3279   10.0205 N.ar    1  UNL1       -0.2281
      7 C          10.5319   42.7618    9.2472 C.2     1  UNL1        0.2563
      8 C           8.4614   44.1671    9.3093 C.3     1  UNL1        0.0937
      9 C           7.0625   44.2633    8.7041 C.3     1  UNL1        0.0216
     10 C           6.3386   42.9313    8.8738 C.3     1  UNL1        0.0035
     11 C           7.0976   41.7588    8.2347 C.3     1  UNL1        0.0216
     12 C           8.5425   42.0953    7.8521 C.3     1  UNL1        0.0937
     13 N           9.1609   42.9578    8.8607 N.am    1  UNL1       -0.2756
     14 O          11.2126   43.7535    9.6263 O.2     1  UNL1       -0.2693
     15 C          13.9952   37.4652    8.6456 C.2     1  UNL1        0.3096
     16 N          12.8305   38.1189    8.1317 N.am    1  UNL1       -0.2482
     17 N          14.5180   36.3322    7.9407 N.am    1  UNL1       -0.2680
     18 O          14.5489   37.8810    9.6990 O.2     1  UNL1       -0.2521
     19 H          12.4343   37.7579    7.3059 H       1  UNL1        0.1583
     20 H          14.0373   36.0606    7.1255 H       1  UNL1        0.1564
     21 C          15.6676   35.5521    8.2974 C.ar    1  UNL1        0.0516
     22 C          16.8993   36.1452    8.6161 C.ar    1  UNL1        0.0156
     23 C          17.9979   35.3521    8.9593 C.ar    1  UNL1        0.0127
     24 C          17.8729   33.9607    8.9861 C.ar    1  UNL1        0.0578
     25 C          16.6498   33.3632    8.6701 C.ar    1  UNL1        0.0127
     26 C          15.5517   34.1578    8.3270 C.ar    1  UNL1        0.0156
     27 CL         19.2477   32.9666    9.4155 Cl      1  UNL1       -0.0822
@<TRIPOS>BOND
     1     1     2    1
     2     2     6   ar
     3     3     5   ar
     4     3     7    1
     5     4     5   ar
     6     4    16    1
     7    15    17   am
     8    22    23   ar
     9    24    27    1
    10    24    25   ar
    11    26    21   ar
    12     7    13   am
    13     8    13    1
    14     8     9    1
    15     9    10    1
    16    10    11    1
    17    11    12    1
    18    12    13    1
    19    16    15   am
    20    17    21    1
    21     2     3   ar
    22     4     6   ar
    23    15    18    2
    24    21    22   ar
    25    23    24   ar
    26    25    26   ar
    27     7    14    2
    28    16    19    1
    29    17    20    1
