@<TRIPOS>MOLECULE
MolPort-020-275-230 MCULE-1542188336 PubChem-110252907
 26 28 0 0 0
SMALL
GASTEIGER

@<TRIPOS>ATOM
      1 C          16.6016   39.9339   10.2033 C.ar    1  UNL1        0.1522
      2 C          14.4437   39.0620   10.6761 C.ar    1  UNL1        0.0808
      3 C          15.0013   38.2003   11.6289 C.ar    1  UNL1        0.1137
      4 C          17.1516   39.0692   11.1581 C.ar    1  UNL1        0.1332
      5 N          15.2592   39.9053    9.9892 N.ar    1  UNL1       -0.2317
      6 N          16.3415   38.2239   11.8477 N.ar    1  UNL1       -0.2382
      7 C          12.9743   39.0716   10.3993 C.3     1  UNL1        0.0617
      8 C          12.5485   37.8154    9.6350 C.3     1  UNL1        0.0094
      9 C          11.0432   37.8332    9.3787 C.3     1  UNL1        0.0219
     10 C          10.6626   39.0866    8.5969 C.3     1  UNL1        0.0935
     11 C          12.5680   40.3345    9.6381 C.3     1  UNL1        0.0994
     12 C          10.2562   41.3245    9.6921 C.2     1  UNL1        0.2559
     13 N          11.1476   40.2680    9.3063 N.am    1  UNL1       -0.2771
     14 O          10.6974   42.3338   10.3040 O.2     1  UNL1       -0.2721
     15 C           8.8049   41.2684    9.3485 C.3     1  UNL1        0.2272
     16 C           6.7531   41.8359    9.9242 C.3     1  UNL1        0.1748
     17 O           8.0914   42.1257   10.1856 O.3     1  UNL1       -0.3417
     18 N          17.4082   40.8469    9.4458 N.pl3   1  UNL1       -0.2821
     19 H          18.3828   40.7215    9.5064 H       1  UNL1        0.1551
     20 C          14.0092   42.7682    6.4810 C.3     1  UNL1        0.0521
     21 C          15.3223   42.8766    7.1682 C.ar    1  UNL1        0.0608
     22 C          16.9566   41.9214    8.6105 C.ar    1  UNL1        0.1328
     23 C          17.7666   43.0506    8.4622 C.ar    1  UNL1        0.0344
     24 C          17.3369   44.1026    7.6516 C.ar    1  UNL1        0.0041
     25 C          16.1066   44.0190    6.9982 C.ar    1  UNL1        0.0148
     26 N          15.7591   41.8624    7.9624 N.ar    1  UNL1       -0.2349
@<TRIPOS>BOND
     1    20    21    1
     2    22    26   ar
     3    22    18    1
     4    23    24   ar
     5    25    21   ar
     6     2     5   ar
     7     3     6   ar
     8     4     1   ar
     9     7     2    1
    10     7     8    1
    11     8     9    1
    12     9    10    1
    13    10    13    1
    14    11    13    1
    15    11     7    1
    16    15    12    1
    17    15    17    1
    18    16    17    1
    19    18     1    1
    20    13    12   am
    21    21    26   ar
    22    22    23   ar
    23    24    25   ar
    24     1     5   ar
    25     2     3   ar
    26     4     6   ar
    27    12    14    2
    28    18    19    1
@<TRIPOS>MOLECULE
MolPort-020-275-230 MCULE-1542188336 PubChem-110252907
 26 28 0 0 0
SMALL
GASTEIGER

@<TRIPOS>ATOM
      1 C          15.8926   42.2021    7.8758 C.ar    1  UNL1        0.1522
      2 C          13.6586   42.5495    7.1489 C.ar    1  UNL1        0.0808
      3 C          14.0652   43.6911    6.4469 C.ar    1  UNL1        0.1137
      4 C          16.2914   43.3449    7.1709 C.ar    1  UNL1        0.1332
      5 N          14.5835   41.8362    7.8443 N.ar    1  UNL1       -0.2317
      6 N          15.3715   44.0620    6.4742 N.ar    1  UNL1       -0.2382
      7 C          12.2318   42.1023    7.1497 C.3     1  UNL1        0.0617
      8 C          11.6995   41.9580    8.5778 C.3     1  UNL1        0.0094
      9 C          10.2367   41.5199    8.5588 C.3     1  UNL1        0.0219
     10 C          10.0973   40.2022    7.8029 C.3     1  UNL1        0.0935
     11 C          12.0666   40.7946    6.3737 C.3     1  UNL1        0.0994
     12 C           9.9171   40.0670    5.2886 C.2     1  UNL1        0.2559
     13 N          10.6821   40.3412    6.4715 N.am    1  UNL1       -0.2771
     14 O          10.4427   40.1945    4.1505 O.2     1  UNL1       -0.2721
     15 C           8.5045   39.5941    5.3803 C.3     1  UNL1        0.2272
     16 C           6.6607   40.2878    6.3716 C.3     1  UNL1        0.1748
     17 O           7.6481   40.6909    5.4740 O.3     1  UNL1       -0.3417
     18 N          16.8199   41.4071    8.6284 N.pl3   1  UNL1       -0.2821
     19 H          17.7746   41.5519    8.4365 H       1  UNL1        0.1551
     20 C          13.5194   39.0421   11.3758 C.3     1  UNL1        0.0521
     21 C          14.9327   39.2629   10.9734 C.ar    1  UNL1        0.0608
     22 C          16.5145   40.4257    9.6282 C.ar    1  UNL1        0.1328
     23 C          17.5591   39.6965   10.2030 C.ar    1  UNL1        0.0344
     24 C          17.2735   38.7384   11.1771 C.ar    1  UNL1        0.0041
     25 C          15.9521   38.5170   11.5679 C.ar    1  UNL1        0.0148
     26 N          15.2321   40.1918   10.0259 N.ar    1  UNL1       -0.2349
@<TRIPOS>BOND
     1    20    21    1
     2    22    26   ar
     3    22    18    1
     4    23    24   ar
     5    25    21   ar
     6     2     5   ar
     7     3     6   ar
     8     4     1   ar
     9     7     2    1
    10     7     8    1
    11     8     9    1
    12     9    10    1
    13    10    13    1
    14    11    13    1
    15    11     7    1
    16    15    12    1
    17    15    17    1
    18    16    17    1
    19    18     1    1
    20    13    12   am
    21    21    26   ar
    22    22    23   ar
    23    24    25   ar
    24     1     5   ar
    25     2     3   ar
    26     4     6   ar
    27    12    14    2
    28    18    19    1
@<TRIPOS>MOLECULE
MolPort-020-275-230 MCULE-1542188336 PubChem-110252907
 26 28 0 0 0
SMALL
GASTEIGER

@<TRIPOS>ATOM
      1 C          12.3836   41.3158    7.6155 C.ar    1  UNL1        0.1522
      2 C          11.8188   39.2005    8.5357 C.ar    1  UNL1        0.0808
      3 C          10.5405   39.6789    8.8492 C.ar    1  UNL1        0.1137
      4 C          11.1030   41.7867    7.9320 C.ar    1  UNL1        0.1332
      5 N          12.7056   40.0321    7.9275 N.ar    1  UNL1       -0.2317
      6 N          10.2124   40.9601    8.5402 N.ar    1  UNL1       -0.2382
      7 C          12.2266   37.7983    8.8571 C.3     1  UNL1        0.0617
      8 C          11.6758   37.3615   10.2170 C.3     1  UNL1        0.0094
      9 C          12.0854   35.9217   10.5195 C.3     1  UNL1        0.0219
     10 C          13.6056   35.7966   10.4956 C.3     1  UNL1        0.0935
     11 C          13.7478   37.6458    8.8127 C.3     1  UNL1        0.0994
     12 C          14.9290   35.4693    8.3709 C.2     1  UNL1        0.2559
     13 N          14.1141   36.2919    9.2188 N.am    1  UNL1       -0.2771
     14 O          15.3558   35.9180    7.2735 O.2     1  UNL1       -0.2721
     15 C          15.3156   34.0880    8.7831 C.3     1  UNL1        0.2272
     16 C          14.7638   32.0244    8.2350 C.3     1  UNL1        0.1748
     17 O          14.2185   33.2364    8.6557 O.3     1  UNL1       -0.3417
     18 N          13.3642   42.1434    6.9739 N.pl3   1  UNL1       -0.2821
     19 H          13.0533   42.6695    6.2020 H       1  UNL1        0.1551
     20 C          17.7382   44.2190    6.2027 C.3     1  UNL1        0.0521
     21 C          16.8793   43.2846    6.9755 C.ar    1  UNL1        0.0608
     22 C          14.7456   42.2915    7.3287 C.ar    1  UNL1        0.1328
     23 C          15.2534   41.5496    8.3988 C.ar    1  UNL1        0.0344
     24 C          16.5966   41.6859    8.7532 C.ar    1  UNL1        0.0041
     25 C          17.4188   42.5586    8.0390 C.ar    1  UNL1        0.0148
     26 N          15.5678   43.1374    6.6462 N.ar    1  UNL1       -0.2349
@<TRIPOS>BOND
     1    20    21    1
     2    22    26   ar
     3    22    18    1
     4    23    24   ar
     5    25    21   ar
     6     2     5   ar
     7     3     6   ar
     8     4     1   ar
     9     7     2    1
    10     7     8    1
    11     8     9    1
    12     9    10    1
    13    10    13    1
    14    11    13    1
    15    11     7    1
    16    15    12    1
    17    15    17    1
    18    16    17    1
    19    18     1    1
    20    13    12   am
    21    21    26   ar
    22    22    23   ar
    23    24    25   ar
    24     1     5   ar
    25     2     3   ar
    26     4     6   ar
    27    12    14    2
    28    18    19    1
@<TRIPOS>MOLECULE
MolPort-020-275-230 MCULE-1542188336 PubChem-110252907
 26 28 0 0 0
SMALL
GASTEIGER

@<TRIPOS>ATOM
      1 C           8.9502   41.5320    7.2417 C.ar    1  UNL1        0.1522
      2 C          11.1274   41.3596    6.3089 C.ar    1  UNL1        0.0808
      3 C          10.5758   40.8925    5.1094 C.ar    1  UNL1        0.1137
      4 C           8.4062   41.0645    6.0387 C.ar    1  UNL1        0.1332
      5 N          10.2995   41.6665    7.3425 N.ar    1  UNL1       -0.2317
      6 N           9.2287   40.7560    5.0022 N.ar    1  UNL1       -0.2382
      7 C          12.6041   41.5253    6.4750 C.3     1  UNL1        0.0617
      8 C          13.0730   40.9736    7.8239 C.3     1  UNL1        0.0094
      9 C          14.5849   41.1335    7.9677 C.3     1  UNL1        0.0219
     10 C          14.9687   42.6037    7.8312 C.3     1  UNL1        0.0935
     11 C          13.0128   42.9906    6.3156 C.3     1  UNL1        0.0994
     12 C          15.3057   43.7397    5.6021 C.2     1  UNL1        0.2559
     13 N          14.4435   43.1284    6.5731 N.am    1  UNL1       -0.2771
     14 O          14.8300   44.1846    4.5235 O.2     1  UNL1       -0.2721
     15 C          16.7674   43.8928    5.8618 C.3     1  UNL1        0.2272
     16 C          18.1243   44.0958    7.5883 C.3     1  UNL1        0.1748
     17 O          16.9614   44.6262    7.0321 O.3     1  UNL1       -0.3417
     18 N           8.1305   41.8727    8.3687 N.pl3   1  UNL1       -0.2821
     19 H           8.4547   41.5758    9.2496 H       1  UNL1        0.1551
     20 C           3.3742   42.1500    9.5243 C.3     1  UNL1        0.0521
     21 C           4.5826   42.7562    8.9077 C.ar    1  UNL1        0.0608
     22 C           6.8927   42.5965    8.3582 C.ar    1  UNL1        0.1328
     23 C           6.8526   43.8614    7.7652 C.ar    1  UNL1        0.0344
     24 C           5.6531   44.5751    7.7494 C.ar    1  UNL1        0.0041
     25 C           4.5076   44.0221    8.3237 C.ar    1  UNL1        0.0148
     26 N           5.7612   42.0771    8.9127 N.ar    1  UNL1       -0.2349
@<TRIPOS>BOND
     1    20    21    1
     2    22    26   ar
     3    22    18    1
     4    23    24   ar
     5    25    21   ar
     6     2     5   ar
     7     3     6   ar
     8     4     1   ar
     9     7     2    1
    10     7     8    1
    11     8     9    1
    12     9    10    1
    13    10    13    1
    14    11    13    1
    15    11     7    1
    16    15    12    1
    17    15    17    1
    18    16    17    1
    19    18     1    1
    20    13    12   am
    21    21    26   ar
    22    22    23   ar
    23    24    25   ar
    24     1     5   ar
    25     2     3   ar
    26     4     6   ar
    27    12    14    2
    28    18    19    1
@<TRIPOS>MOLECULE
MolPort-020-275-230 MCULE-1542188336 PubChem-110252907
 26 28 0 0 0
SMALL
GASTEIGER

@<TRIPOS>ATOM
      1 C          13.0539   41.0565    8.5382 C.ar    1  UNL1        0.1522
      2 C          11.2218   41.2708   10.0339 C.ar    1  UNL1        0.0808
      3 C          11.8883   40.4645   10.9650 C.ar    1  UNL1        0.1137
      4 C          13.7143   40.2512    9.4748 C.ar    1  UNL1        0.1332
      5 N          11.8227   41.5447    8.8458 N.ar    1  UNL1       -0.2317
      6 N          13.1185   39.9738   10.6640 N.ar    1  UNL1       -0.2382
      7 C           9.8660   41.8330   10.3194 C.3     1  UNL1        0.0617
      8 C           9.3333   41.3329   11.6648 C.3     1  UNL1        0.0094
      9 C           7.9576   41.9322   11.9484 C.3     1  UNL1        0.0219
     10 C           6.9904   41.5711   10.8253 C.3     1  UNL1        0.0935
     11 C           8.8871   41.5036    9.1913 C.3     1  UNL1        0.0994
     12 C           6.8403   42.8677    8.6646 C.2     1  UNL1        0.2559
     13 N           7.5555   41.9878    9.5443 N.am    1  UNL1       -0.2771
     14 O           7.3482   43.2141    7.5647 O.2     1  UNL1       -0.2721
     15 C           5.4751   43.3594    9.0138 C.3     1  UNL1        0.2272
     16 C           4.0183   44.6726    8.0057 C.3     1  UNL1        0.1748
     17 O           5.3079   44.6584    8.5348 O.3     1  UNL1       -0.3417
     18 N          13.6343   41.3820    7.2672 N.pl3   1  UNL1       -0.2821
     19 H          13.4407   40.7617    6.5276 H       1  UNL1        0.1551
     20 C          17.7792   43.9119    7.9413 C.3     1  UNL1        0.0521
     21 C          16.4680   43.7544    7.2600 C.ar    1  UNL1        0.0608
     22 C          14.4644   42.5077    6.9515 C.ar    1  UNL1        0.1328
     23 C          14.0179   43.4345    6.0054 C.ar    1  UNL1        0.0344
     24 C          14.8178   44.5341    5.6901 C.ar    1  UNL1        0.0041
     25 C          16.0523   44.6989    6.3197 C.ar    1  UNL1        0.0148
     26 N          15.6738   42.6898    7.5531 N.ar    1  UNL1       -0.2349
@<TRIPOS>BOND
     1    20    21    1
     2    22    26   ar
     3    22    18    1
     4    23    24   ar
     5    25    21   ar
     6     2     5   ar
     7     3     6   ar
     8     4     1   ar
     9     7     2    1
    10     7     8    1
    11     8     9    1
    12     9    10    1
    13    10    13    1
    14    11    13    1
    15    11     7    1
    16    15    12    1
    17    15    17    1
    18    16    17    1
    19    18     1    1
    20    13    12   am
    21    21    26   ar
    22    22    23   ar
    23    24    25   ar
    24     1     5   ar
    25     2     3   ar
    26     4     6   ar
    27    12    14    2
    28    18    19    1
@<TRIPOS>MOLECULE
MolPort-020-275-230 MCULE-1542188336 PubChem-110252907
 26 28 0 0 0
SMALL
GASTEIGER

@<TRIPOS>ATOM
      1 C          14.8217   40.3585    9.6463 C.ar    1  UNL1        0.1522
      2 C          12.4888   40.6315    9.9966 C.ar    1  UNL1        0.0808
      3 C          12.5471   39.7403   11.0754 C.ar    1  UNL1        0.1137
      4 C          14.8719   39.4684   10.7266 C.ar    1  UNL1        0.1332
      5 N          13.6278   40.9162    9.3114 N.ar    1  UNL1       -0.2317
      6 N          13.7367   39.1799   11.4152 N.ar    1  UNL1       -0.2382
      7 C          11.2024   41.2725    9.5842 C.3     1  UNL1        0.0617
      8 C          10.2866   41.4977   10.7902 C.3     1  UNL1        0.0094
      9 C           8.9871   42.1703   10.3532 C.3     1  UNL1        0.0219
     10 C           8.2848   41.3145    9.3037 C.3     1  UNL1        0.0935
     11 C          10.4948   40.4421    8.5123 C.3     1  UNL1        0.0994
     12 C           8.8651   41.3917    6.8481 C.2     1  UNL1        0.2559
     13 N           9.2036   41.0478    8.1997 N.am    1  UNL1       -0.2771
     14 O           9.6741   41.1526    5.9120 O.2     1  UNL1       -0.2721
     15 C           7.5436   42.0024    6.5191 C.3     1  UNL1        0.2272
     16 C           6.3792   40.1368    6.3544 C.3     1  UNL1        0.1748
     17 O           6.8721   41.1989    5.5980 O.3     1  UNL1       -0.3417
     18 N          15.9879   40.6997    8.8836 N.pl3   1  UNL1       -0.2821
     19 H          16.6677   39.9942    8.7869 H       1  UNL1        0.1551
     20 C          14.7854   44.1851    5.6524 C.3     1  UNL1        0.0521
     21 C          15.7150   43.6574    6.6845 C.ar    1  UNL1        0.0608
     22 C          16.2761   41.9513    8.2460 C.ar    1  UNL1        0.1328
     23 C          17.4306   42.6484    8.6127 C.ar    1  UNL1        0.0344
     24 C          17.7211   43.8679    7.9988 C.ar    1  UNL1        0.0041
     25 C          16.8597   44.3795    7.0272 C.ar    1  UNL1        0.0148
     26 N          15.4500   42.4710    7.2946 N.ar    1  UNL1       -0.2349
@<TRIPOS>BOND
     1    20    21    1
     2    22    26   ar
     3    22    18    1
     4    23    24   ar
     5    25    21   ar
     6     2     5   ar
     7     3     6   ar
     8     4     1   ar
     9     7     2    1
    10     7     8    1
    11     8     9    1
    12     9    10    1
    13    10    13    1
    14    11    13    1
    15    11     7    1
    16    15    12    1
    17    15    17    1
    18    16    17    1
    19    18     1    1
    20    13    12   am
    21    21    26   ar
    22    22    23   ar
    23    24    25   ar
    24     1     5   ar
    25     2     3   ar
    26     4     6   ar
    27    12    14    2
    28    18    19    1
@<TRIPOS>MOLECULE
MolPort-020-275-230 MCULE-1542188336 PubChem-110252907
 26 28 0 0 0
SMALL
GASTEIGER

@<TRIPOS>ATOM
      1 C          16.5462   41.9291    8.3706 C.ar    1  UNL1        0.1522
      2 C          14.3290   42.1159    7.5407 C.ar    1  UNL1        0.0808
      3 C          14.7080   43.2291    6.7803 C.ar    1  UNL1        0.1137
      4 C          16.9176   43.0429    7.6069 C.ar    1  UNL1        0.1332
      5 N          15.2584   41.4962    8.3153 N.ar    1  UNL1       -0.2317
      6 N          15.9929   43.6665    6.8310 N.ar    1  UNL1       -0.2382
      7 C          12.9264   41.5981    7.5186 C.3     1  UNL1        0.0617
      8 C          12.4292   41.4126    6.0826 C.3     1  UNL1        0.0094
      9 C          11.0035   40.8653    6.0796 C.3     1  UNL1        0.0219
     10 C          10.0814   41.8096    6.8445 C.3     1  UNL1        0.0935
     11 C          11.9898   42.5184    8.3031 C.3     1  UNL1        0.0994
     12 C           9.8345   41.7616    9.3564 C.2     1  UNL1        0.2559
     13 N          10.6177   42.0331    8.1848 N.am    1  UNL1       -0.2771
     14 O          10.3187   41.9615   10.5024 O.2     1  UNL1       -0.2721
     15 C           8.4283   41.2744    9.2438 C.3     1  UNL1        0.2272
     16 C           6.6015   41.5871   10.4389 C.3     1  UNL1        0.1748
     17 O           7.5517   42.2678    9.6794 O.3     1  UNL1       -0.3417
     18 N          17.4797   41.2318    9.2076 N.pl3   1  UNL1       -0.2821
     19 H          18.3856   41.6134    9.2629 H       1  UNL1        0.1551
     20 C          14.4354   38.3967   11.8016 C.3     1  UNL1        0.0521
     21 C          15.7864   38.6480   11.2361 C.ar    1  UNL1        0.0608
     22 C          17.2436   40.0423    9.9728 C.ar    1  UNL1        0.1328
     23 C          18.2955   39.1433   10.1692 C.ar    1  UNL1        0.0344
     24 C          18.0771   37.9820   10.9123 C.ar    1  UNL1        0.0041
     25 C          16.8150   37.7289   11.4513 C.ar    1  UNL1        0.0148
     26 N          16.0198   39.7736   10.5090 N.ar    1  UNL1       -0.2349
@<TRIPOS>BOND
     1    20    21    1
     2    22    26   ar
     3    22    18    1
     4    23    24   ar
     5    25    21   ar
     6     2     5   ar
     7     3     6   ar
     8     4     1   ar
     9     7     2    1
    10     7     8    1
    11     8     9    1
    12     9    10    1
    13    10    13    1
    14    11    13    1
    15    11     7    1
    16    15    12    1
    17    15    17    1
    18    16    17    1
    19    18     1    1
    20    13    12   am
    21    21    26   ar
    22    22    23   ar
    23    24    25   ar
    24     1     5   ar
    25     2     3   ar
    26     4     6   ar
    27    12    14    2
    28    18    19    1
@<TRIPOS>MOLECULE
MolPort-020-275-230 MCULE-1542188336 PubChem-110252907
 26 28 0 0 0
SMALL
GASTEIGER

@<TRIPOS>ATOM
      1 C          12.4116   41.7932    8.3750 C.ar    1  UNL1        0.1522
      2 C          12.9057   39.9949    9.8453 C.ar    1  UNL1        0.0808
      3 C          11.8270   40.3642   10.6585 C.ar    1  UNL1        0.1137
      4 C          11.3343   42.1560    9.1933 C.ar    1  UNL1        0.1332
      5 N          13.1687   40.7196    8.7257 N.ar    1  UNL1       -0.2317
      6 N          11.0667   41.4355   10.3138 N.ar    1  UNL1       -0.2382
      7 C          13.7718   38.8241   10.1841 C.3     1  UNL1        0.0617
      8 C          14.5155   39.0510   11.5028 C.3     1  UNL1        0.0094
      9 C          15.3792   37.8382   11.8422 C.3     1  UNL1        0.0219
     10 C          16.3685   37.5704   10.7123 C.3     1  UNL1        0.0935
     11 C          14.7543   38.5229    9.0512 C.3     1  UNL1        0.0994
     12 C          15.7719   36.2597    8.6389 C.2     1  UNL1        0.2559
     13 N          15.6421   37.4351    9.4521 N.am    1  UNL1       -0.2771
     14 O          15.1349   36.1651    7.5559 O.2     1  UNL1       -0.2721
     15 C          16.6844   35.1478    9.0369 C.3     1  UNL1        0.2272
     16 C          17.0148   33.0358    8.4949 C.3     1  UNL1        0.1748
     17 O          16.0232   33.9273    8.9012 O.3     1  UNL1       -0.3417
     18 N          12.7408   42.5171    7.1809 N.pl3   1  UNL1       -0.2821
     19 H          12.0154   42.6288    6.5247 H       1  UNL1        0.1551
     20 C          17.5940   42.7882    7.8190 C.3     1  UNL1        0.0521
     21 C          16.3631   43.2474    7.1246 C.ar    1  UNL1        0.0608
     22 C          14.0059   43.0963    6.8344 C.ar    1  UNL1        0.1328
     23 C          14.0509   44.0839    5.8466 C.ar    1  UNL1        0.0344
     24 C          15.2770   44.6547    5.5011 C.ar    1  UNL1        0.0041
     25 C          16.4438   44.2362    6.1423 C.ar    1  UNL1        0.0148
     26 N          15.1586   42.7039    7.4467 N.ar    1  UNL1       -0.2349
@<TRIPOS>BOND
     1    20    21    1
     2    22    26   ar
     3    22    18    1
     4    23    24   ar
     5    25    21   ar
     6     2     5   ar
     7     3     6   ar
     8     4     1   ar
     9     7     2    1
    10     7     8    1
    11     8     9    1
    12     9    10    1
    13    10    13    1
    14    11    13    1
    15    11     7    1
    16    15    12    1
    17    15    17    1
    18    16    17    1
    19    18     1    1
    20    13    12   am
    21    21    26   ar
    22    22    23   ar
    23    24    25   ar
    24     1     5   ar
    25     2     3   ar
    26     4     6   ar
    27    12    14    2
    28    18    19    1
@<TRIPOS>MOLECULE
MolPort-020-275-230 MCULE-1542188336 PubChem-110252907
 26 28 0 0 0
SMALL
GASTEIGER

@<TRIPOS>ATOM
      1 C          14.6187   40.2490    9.4458 C.ar    1  UNL1        0.1522
      2 C          12.3060   40.0128    8.9605 C.ar    1  UNL1        0.0808
      3 C          12.1088   39.3976   10.2030 C.ar    1  UNL1        0.1137
      4 C          14.4132   39.6332   10.6869 C.ar    1  UNL1        0.1332
      5 N          13.5558   40.4216    8.6157 N.ar    1  UNL1       -0.2317
      6 N          13.1664   39.2223   11.0370 N.ar    1  UNL1       -0.2382
      7 C          11.1732   40.2266    8.0083 C.3     1  UNL1        0.0617
      8 C          11.6574   40.1859    6.5565 C.3     1  UNL1        0.0094
      9 C          10.4850   40.3864    5.5987 C.3     1  UNL1        0.0219
     10 C           9.7935   41.7141    5.8924 C.3     1  UNL1        0.0935
     11 C          10.4499   41.5417    8.3030 C.3     1  UNL1        0.0994
     12 C           8.0503   41.9914    7.6971 C.2     1  UNL1        0.2559
     13 N           9.4105   41.7616    7.3013 N.am    1  UNL1       -0.2771
     14 O           7.7435   42.0275    8.9187 O.2     1  UNL1       -0.2721
     15 C           6.9840   42.2264    6.6797 C.3     1  UNL1        0.2272
     16 C           5.8929   44.0967    7.0978 C.3     1  UNL1        0.1748
     17 O           6.9457   43.5797    6.3446 O.3     1  UNL1       -0.3417
     18 N          15.9127   40.7025    9.0236 N.pl3   1  UNL1       -0.2821
     19 H          16.6724   40.1141    9.2378 H       1  UNL1        0.1551
     20 C          14.7844   44.0412    5.6155 C.3     1  UNL1        0.0521
     21 C          15.7006   43.5499    6.6772 C.ar    1  UNL1        0.0608
     22 C          16.2254   41.9152    8.3252 C.ar    1  UNL1        0.1328
     23 C          17.3907   42.6096    8.6619 C.ar    1  UNL1        0.0344
     24 C          17.7050   43.7913    7.9887 C.ar    1  UNL1        0.0041
     25 C          16.8566   44.2683    6.9886 C.ar    1  UNL1        0.0148
     26 N          15.4123   42.4006    7.3450 N.ar    1  UNL1       -0.2349
@<TRIPOS>BOND
     1    20    21    1
     2    22    26   ar
     3    22    18    1
     4    23    24   ar
     5    25    21   ar
     6     2     5   ar
     7     3     6   ar
     8     4     1   ar
     9     7     2    1
    10     7     8    1
    11     8     9    1
    12     9    10    1
    13    10    13    1
    14    11    13    1
    15    11     7    1
    16    15    12    1
    17    15    17    1
    18    16    17    1
    19    18     1    1
    20    13    12   am
    21    21    26   ar
    22    22    23   ar
    23    24    25   ar
    24     1     5   ar
    25     2     3   ar
    26     4     6   ar
    27    12    14    2
    28    18    19    1
@<TRIPOS>MOLECULE
MolPort-020-275-230 MCULE-1542188336 PubChem-110252907
 26 28 0 0 0
SMALL
GASTEIGER

@<TRIPOS>ATOM
      1 C          13.7611   40.4578    8.7061 C.ar    1  UNL1        0.1522
      2 C          11.4967   41.1733    8.6832 C.ar    1  UNL1        0.0808
      3 C          11.0865   39.8640    8.4029 C.ar    1  UNL1        0.1137
      4 C          13.3428   39.1507    8.4260 C.ar    1  UNL1        0.1332
      5 N          12.8230   41.4346    8.8270 N.ar    1  UNL1       -0.2317
      6 N          12.0185   38.8836    8.2810 N.ar    1  UNL1       -0.2382
      7 C          10.5081   42.2860    8.8253 C.3     1  UNL1        0.0617
      8 C          10.6052   42.9372   10.2075 C.3     1  UNL1        0.0094
      9 C           9.6027   44.0830   10.3274 C.3     1  UNL1        0.0219
     10 C           8.1888   43.5662   10.0804 C.3     1  UNL1        0.0935
     11 C           9.0854   41.7933    8.5556 C.3     1  UNL1        0.0994
     12 C           7.2106   43.2756    7.7714 C.2     1  UNL1        0.2559
     13 N           8.1400   42.8808    8.7912 N.am    1  UNL1       -0.2771
     14 O           7.1873   42.6700    6.6667 O.2     1  UNL1       -0.2721
     15 C           6.2347   44.3799    8.0079 C.3     1  UNL1        0.2272
     16 C           4.3992   43.5782    8.9307 C.3     1  UNL1        0.1748
     17 O           4.9469   43.9411    7.7012 O.3     1  UNL1       -0.3417
     18 N          15.1453   40.7979    8.8691 N.pl3   1  UNL1       -0.2821
     19 H          15.6671   40.2237    9.4752 H       1  UNL1        0.1551
     20 C          15.3553   44.3471    5.4936 C.3     1  UNL1        0.0521
     21 C          15.9825   43.6087    6.6203 C.ar    1  UNL1        0.0608
     22 C          15.8554   41.8788    8.2498 C.ar    1  UNL1        0.1328
     23 C          17.1269   42.2135    8.7235 C.ar    1  UNL1        0.0344
     24 C          17.8273   43.2641    8.1282 C.ar    1  UNL1        0.0041
     25 C          17.2545   43.9692    7.0688 C.ar    1  UNL1        0.0148
     26 N          15.3166   42.5819    7.2140 N.ar    1  UNL1       -0.2349
@<TRIPOS>BOND
     1    20    21    1
     2    22    26   ar
     3    22    18    1
     4    23    24   ar
     5    25    21   ar
     6     2     5   ar
     7     3     6   ar
     8     4     1   ar
     9     7     2    1
    10     7     8    1
    11     8     9    1
    12     9    10    1
    13    10    13    1
    14    11    13    1
    15    11     7    1
    16    15    12    1
    17    15    17    1
    18    16    17    1
    19    18     1    1
    20    13    12   am
    21    21    26   ar
    22    22    23   ar
    23    24    25   ar
    24     1     5   ar
    25     2     3   ar
    26     4     6   ar
    27    12    14    2
    28    18    19    1
