@<TRIPOS>MOLECULE
MolPort-002-790-869 CSC020584203 CSSS00020584203 LN01039988 MCULE-9411463443 PubChem-17161549
 23 24 0 0 0
SMALL
GASTEIGER

@<TRIPOS>ATOM
      1 C           1.7752   44.2008   17.4639 C.2     1  UNL1        0.3082
      2 O           1.3362   45.3042   17.0416 O.2     1  UNL1       -0.2522
      3 N           1.4695   42.9809   16.7765 N.am    1  UNL1       -0.2680
      4 N           2.5900   44.1405   18.6414 N.am    1  UNL1       -0.2681
      5 H           1.8437   42.1545   17.1590 H       1  UNL1        0.1564
      6 H           2.8999   43.2476   18.9169 H       1  UNL1        0.1564
      7 C           0.5955   42.5473   13.1765 C.ar    1  UNL1        0.1396
      8 C          -0.8074   42.5494   13.2284 C.ar    1  UNL1        0.0370
      9 C          -1.4654   42.6939   14.4519 C.ar    1  UNL1        0.0044
     10 C          -0.7261   42.8369   15.6287 C.ar    1  UNL1        0.0149
     11 C           0.6763   42.8365   15.5901 C.ar    1  UNL1        0.0546
     12 C           1.3269   42.6912   14.3600 C.ar    1  UNL1        0.0516
     13 O           1.2839   42.4034   11.9683 O.3     1  UNL1       -0.4791
     14 C           2.6968   42.2480   11.9015 C.3     1  UNL1        0.1660
     15 C           3.0586   40.8141   12.2277 C.3     1  UNL1        0.0472
     16 C           3.5546   41.3170    9.7585 C.3     1  UNL1        0.0038
     17 C           3.1895   42.5847   10.5061 C.3     1  UNL1        0.0435
     18 C           3.0019   45.2433   19.4609 C.ar    1  UNL1        0.0516
     19 C           4.2102   45.9230   19.2413 C.ar    1  UNL1        0.0147
     20 C           4.5783   46.9937   20.0612 C.ar    1  UNL1        0.0013
     21 C           3.7409   47.3926   21.1065 C.ar    1  UNL1        0.0001
     22 C           2.5364   46.7206   21.3309 C.ar    1  UNL1        0.0013
     23 C           2.1696   45.6497   20.5100 C.ar    1  UNL1        0.0147
@<TRIPOS>BOND
     1    16    17    1
     2    14    17    1
     3    14    15    1
     4    14    13    1
     5     7    13    1
     6     8     9   ar
     7    10    11   ar
     8    11     3    1
     9     1     4   am
    10    19    20   ar
    11    21    22   ar
    12    23    18   ar
    13    12     7   ar
    14     3     1   am
    15     4    18    1
    16     7     8   ar
    17     9    10   ar
    18    11    12   ar
    19     1     2    2
    20    18    19   ar
    21    20    21   ar
    22    22    23   ar
    23     3     5    1
    24     4     6    1
@<TRIPOS>MOLECULE
MolPort-002-790-869 CSC020584203 CSSS00020584203 LN01039988 MCULE-9411463443 PubChem-17161549
 23 24 0 0 0
SMALL
GASTEIGER

@<TRIPOS>ATOM
      1 C           2.3418   42.0615   12.2165 C.2     1  UNL1        0.3082
      2 O           1.8100   42.5306   11.1745 O.2     1  UNL1       -0.2522
      3 N           3.6651   41.5125   12.1784 N.am    1  UNL1       -0.2680
      4 N           1.6354   42.0664   13.4635 N.am    1  UNL1       -0.2681
      5 H           4.0212   41.1629   13.0271 H       1  UNL1        0.1564
      6 H           2.1080   41.6851   14.2385 H       1  UNL1        0.1564
      7 C           6.7677   41.6039   10.1101 C.ar    1  UNL1        0.1396
      8 C           6.2694   41.2543    8.8451 C.ar    1  UNL1        0.0370
      9 C           4.9089   40.9882    8.6744 C.ar    1  UNL1        0.0044
     10 C           4.0401   41.0699    9.7654 C.ar    1  UNL1        0.0149
     11 C           4.5257   41.4183   11.0347 C.ar    1  UNL1        0.0546
     12 C           5.8900   41.6831   11.1963 C.ar    1  UNL1        0.0516
     13 O           8.1238   41.8750   10.3144 O.3     1  UNL1       -0.4791
     14 C           8.8365   42.8476    9.5587 C.3     1  UNL1        0.1660
     15 C           9.4203   43.8820   10.4981 C.3     1  UNL1        0.0472
     16 C          11.2295   42.1649    9.6143 C.3     1  UNL1        0.0038
     17 C           9.9597   42.1815    8.7854 C.3     1  UNL1        0.0435
     18 C           0.3129   42.5679   13.7021 C.ar    1  UNL1        0.0516
     19 C           0.0678   43.9248   13.9649 C.ar    1  UNL1        0.0147
     20 C          -1.2352   44.3768   14.1927 C.ar    1  UNL1        0.0013
     21 C          -2.3026   43.4754   14.1593 C.ar    1  UNL1        0.0001
     22 C          -2.0661   42.1231   13.8981 C.ar    1  UNL1        0.0013
     23 C          -0.7621   41.6725   13.6705 C.ar    1  UNL1        0.0147
@<TRIPOS>BOND
     1    16    17    1
     2    14    17    1
     3    14    15    1
     4    14    13    1
     5     7    13    1
     6     8     9   ar
     7    10    11   ar
     8    11     3    1
     9     1     4   am
    10    19    20   ar
    11    21    22   ar
    12    23    18   ar
    13    12     7   ar
    14     3     1   am
    15     4    18    1
    16     7     8   ar
    17     9    10   ar
    18    11    12   ar
    19     1     2    2
    20    18    19   ar
    21    20    21   ar
    22    22    23   ar
    23     3     5    1
    24     4     6    1
@<TRIPOS>MOLECULE
MolPort-002-790-869 CSC020584203 CSSS00020584203 LN01039988 MCULE-9411463443 PubChem-17161549
 23 24 0 0 0
SMALL
GASTEIGER

@<TRIPOS>ATOM
      1 C          11.5276   42.0875    6.4173 C.2     1  UNL1        0.3082
      2 O          11.5304   41.8798    7.6604 O.2     1  UNL1       -0.2522
      3 N          10.3441   41.8616    5.6410 N.am    1  UNL1       -0.2680
      4 N          12.7076   42.5543    5.7513 N.am    1  UNL1       -0.2681
      5 H          10.4097   42.0433    4.6756 H       1  UNL1        0.1564
      6 H          12.6375   42.6963    4.7796 H       1  UNL1        0.1564
      7 C           7.0683   41.8398    7.4244 C.ar    1  UNL1        0.1396
      8 C           6.5824   40.5637    7.0985 C.ar    1  UNL1        0.0370
      9 C           7.3361   39.7099    6.2899 C.ar    1  UNL1        0.0044
     10 C           8.5776   40.1260    5.8031 C.ar    1  UNL1        0.0149
     11 C           9.0743   41.3989    6.1216 C.ar    1  UNL1        0.0546
     12 C           8.3125   42.2474    6.9323 C.ar    1  UNL1        0.0516
     13 O           6.3380   42.7184    8.2301 O.3     1  UNL1       -0.4791
     14 C           5.1130   42.3520    8.8546 C.3     1  UNL1        0.1660
     15 C           5.3946   41.8605   10.2590 C.3     1  UNL1        0.0472
     16 C           4.5481   44.5539    7.8408 C.3     1  UNL1        0.0038
     17 C           4.1857   43.5516    8.9194 C.3     1  UNL1        0.0435
     18 C          13.9799   42.8366    6.3505 C.ar    1  UNL1        0.0516
     19 C          14.5779   41.9640    7.2731 C.ar    1  UNL1        0.0147
     20 C          15.8194   42.2729    7.8365 C.ar    1  UNL1        0.0013
     21 C          16.4720   43.4565    7.4814 C.ar    1  UNL1        0.0001
     22 C          15.8827   44.3299    6.5634 C.ar    1  UNL1        0.0013
     23 C          14.6408   44.0196    6.0008 C.ar    1  UNL1        0.0147
@<TRIPOS>BOND
     1    16    17    1
     2    14    17    1
     3    14    15    1
     4    14    13    1
     5     7    13    1
     6     8     9   ar
     7    10    11   ar
     8    11     3    1
     9     1     4   am
    10    19    20   ar
    11    21    22   ar
    12    23    18   ar
    13    12     7   ar
    14     3     1   am
    15     4    18    1
    16     7     8   ar
    17     9    10   ar
    18    11    12   ar
    19     1     2    2
    20    18    19   ar
    21    20    21   ar
    22    22    23   ar
    23     3     5    1
    24     4     6    1
@<TRIPOS>MOLECULE
MolPort-002-790-869 CSC020584203 CSSS00020584203 LN01039988 MCULE-9411463443 PubChem-17161549
 23 24 0 0 0
SMALL
GASTEIGER

@<TRIPOS>ATOM
      1 C          11.7614   42.1879    6.4625 C.2     1  UNL1        0.3082
      2 O          11.7804   42.0082    7.7098 O.2     1  UNL1       -0.2522
      3 N          10.5768   41.9167    5.7027 N.am    1  UNL1       -0.2680
      4 N          12.9239   42.6675    5.7751 N.am    1  UNL1       -0.2681
      5 H          10.6293   42.0782    4.7329 H       1  UNL1        0.1564
      6 H          12.8418   42.7859    4.8012 H       1  UNL1        0.1564
      7 C           7.4401   41.7461    7.7137 C.ar    1  UNL1        0.1396
      8 C           6.8680   40.5561    7.2367 C.ar    1  UNL1        0.0370
      9 C           7.5175   39.8096    6.2509 C.ar    1  UNL1        0.0044
     10 C           8.7406   40.2475    5.7371 C.ar    1  UNL1        0.0149
     11 C           9.3228   41.4349    6.2055 C.ar    1  UNL1        0.0546
     12 C           8.6650   42.1762    7.1931 C.ar    1  UNL1        0.0516
     13 O           6.8150   42.5165    8.6985 O.3     1  UNL1       -0.4791
     14 C           6.1063   43.7147    8.4036 C.3     1  UNL1        0.1660
     15 C           6.1614   43.9748    6.9128 C.3     1  UNL1        0.0472
     16 C           3.8051   44.6286    8.1493 C.3     1  UNL1        0.0038
     17 C           4.6579   43.5796    8.8361 C.3     1  UNL1        0.0435
     18 C          14.1945   42.9932    6.3557 C.ar    1  UNL1        0.0516
     19 C          14.8350   42.1420    7.2698 C.ar    1  UNL1        0.0147
     20 C          16.0733   42.4933    7.8150 C.ar    1  UNL1        0.0013
     21 C          16.6802   43.6981    7.4501 C.ar    1  UNL1        0.0001
     22 C          16.0484   44.5503    6.5405 C.ar    1  UNL1        0.0013
     23 C          14.8097   44.1976    5.9961 C.ar    1  UNL1        0.0147
@<TRIPOS>BOND
     1    16    17    1
     2    14    17    1
     3    14    15    1
     4    14    13    1
     5     7    13    1
     6     8     9   ar
     7    10    11   ar
     8    11     3    1
     9     1     4   am
    10    19    20   ar
    11    21    22   ar
    12    23    18   ar
    13    12     7   ar
    14     3     1   am
    15     4    18    1
    16     7     8   ar
    17     9    10   ar
    18    11    12   ar
    19     1     2    2
    20    18    19   ar
    21    20    21   ar
    22    22    23   ar
    23     3     5    1
    24     4     6    1
@<TRIPOS>MOLECULE
MolPort-002-790-869 CSC020584203 CSSS00020584203 LN01039988 MCULE-9411463443 PubChem-17161549
 23 24 0 0 0
SMALL
GASTEIGER

@<TRIPOS>ATOM
      1 C          12.1735   42.2637    6.4642 C.2     1  UNL1        0.3082
      2 O          12.1701   42.3374    7.7224 O.2     1  UNL1       -0.2522
      3 N          11.0151   41.8055    5.7555 N.am    1  UNL1       -0.2680
      4 N          13.3359   42.6362    5.7131 N.am    1  UNL1       -0.2681
      5 H          11.0843   41.7719    4.7740 H       1  UNL1        0.1564
      6 H          13.2719   42.5550    4.7341 H       1  UNL1        0.1564
      7 C           8.1477   41.5844    8.1306 C.ar    1  UNL1        0.1396
      8 C           7.3354   40.6299    7.4983 C.ar    1  UNL1        0.0370
      9 C           7.7340   40.0588    6.2876 C.ar    1  UNL1        0.0044
     10 C           8.9448   40.4380    5.7028 C.ar    1  UNL1        0.0149
     11 C           9.7655   41.3908    6.3248 C.ar    1  UNL1        0.0546
     12 C           9.3581   41.9576    7.5374 C.ar    1  UNL1        0.0516
     13 O           7.7768   42.1755    9.3420 O.3     1  UNL1       -0.4791
     14 C           8.7266   42.6255   10.3013 C.3     1  UNL1        0.1660
     15 C           8.8109   44.1367   10.2513 C.3     1  UNL1        0.0472
     16 C           9.2567   41.1432   12.2293 C.3     1  UNL1        0.0038
     17 C           8.3024   42.1924   11.6926 C.3     1  UNL1        0.0435
     18 C          14.5826   43.1149    6.2367 C.ar    1  UNL1        0.0516
     19 C          15.1823   44.2945    5.7687 C.ar    1  UNL1        0.0147
     20 C          16.3983   44.7298    6.3034 C.ar    1  UNL1        0.0013
     21 C          17.0234   43.9888    7.3100 C.ar    1  UNL1        0.0001
     22 C          16.4321   42.8135    7.7809 C.ar    1  UNL1        0.0013
     23 C          15.2157   42.3793    7.2450 C.ar    1  UNL1        0.0147
@<TRIPOS>BOND
     1    16    17    1
     2    14    17    1
     3    14    15    1
     4    14    13    1
     5     7    13    1
     6     8     9   ar
     7    10    11   ar
     8    11     3    1
     9     1     4   am
    10    19    20   ar
    11    21    22   ar
    12    23    18   ar
    13    12     7   ar
    14     3     1   am
    15     4    18    1
    16     7     8   ar
    17     9    10   ar
    18    11    12   ar
    19     1     2    2
    20    18    19   ar
    21    20    21   ar
    22    22    23   ar
    23     3     5    1
    24     4     6    1
@<TRIPOS>MOLECULE
MolPort-002-790-869 CSC020584203 CSSS00020584203 LN01039988 MCULE-9411463443 PubChem-17161549
 23 24 0 0 0
SMALL
GASTEIGER

@<TRIPOS>ATOM
      1 C          11.3217   41.7524    7.8297 C.2     1  UNL1        0.3082
      2 O          11.3246   42.4743    8.8628 O.2     1  UNL1       -0.2522
      3 N          12.5505   41.2714    7.2703 N.am    1  UNL1       -0.2680
      4 N          10.0895   41.3958    7.1904 N.am    1  UNL1       -0.2681
      5 H          12.4776   40.7125    6.4631 H       1  UNL1        0.1564
      6 H          10.1579   40.8297    6.3878 H       1  UNL1        0.1564
      7 C          15.7568   43.0459    7.9651 C.ar    1  UNL1        0.1396
      8 C          16.4617   42.0730    8.6914 C.ar    1  UNL1        0.0370
      9 C          15.8787   40.8308    8.9520 C.ar    1  UNL1        0.0044
     10 C          14.5900   40.5543    8.4890 C.ar    1  UNL1        0.0149
     11 C          13.8752   41.5181    7.7620 C.ar    1  UNL1        0.0546
     12 C          14.4671   42.7597    7.5057 C.ar    1  UNL1        0.0516
     13 O          16.3115   44.2989    7.6887 O.3     1  UNL1       -0.4791
     14 C          16.5289   44.7688    6.3633 C.3     1  UNL1        0.1660
     15 C          17.3443   43.7479    5.5977 C.3     1  UNL1        0.0472
     16 C          14.9469   43.8551    4.6727 C.3     1  UNL1        0.0038
     17 C          15.1987   44.9760    5.6625 C.3     1  UNL1        0.0435
     18 C           8.7673   41.7762    7.5960 C.ar    1  UNL1        0.0516
     19 C           8.0343   42.7605    6.9148 C.ar    1  UNL1        0.0147
     20 C           6.7479   43.1049    7.3397 C.ar    1  UNL1        0.0013
     21 C           6.1850   42.4676    8.4487 C.ar    1  UNL1        0.0001
     22 C           6.9089   41.4867    9.1318 C.ar    1  UNL1        0.0013
     23 C           8.1957   41.1433    8.7056 C.ar    1  UNL1        0.0147
@<TRIPOS>BOND
     1    16    17    1
     2    14    17    1
     3    14    15    1
     4    14    13    1
     5     7    13    1
     6     8     9   ar
     7    10    11   ar
     8    11     3    1
     9     1     4   am
    10    19    20   ar
    11    21    22   ar
    12    23    18   ar
    13    12     7   ar
    14     3     1   am
    15     4    18    1
    16     7     8   ar
    17     9    10   ar
    18    11    12   ar
    19     1     2    2
    20    18    19   ar
    21    20    21   ar
    22    22    23   ar
    23     3     5    1
    24     4     6    1
@<TRIPOS>MOLECULE
MolPort-002-790-869 CSC020584203 CSSS00020584203 LN01039988 MCULE-9411463443 PubChem-17161549
 23 24 0 0 0
SMALL
GASTEIGER

@<TRIPOS>ATOM
      1 C          11.5669   41.8403    6.5176 C.2     1  UNL1        0.3082
      2 O          11.5231   41.2478    7.6292 O.2     1  UNL1       -0.2522
      3 N          12.7816   42.4485    6.0606 N.am    1  UNL1       -0.2680
      4 N          10.4031   41.9196    5.6850 N.am    1  UNL1       -0.2681
      5 H          12.7475   42.8949    5.1838 H       1  UNL1        0.1564
      6 H          10.5055   42.3963    4.8298 H       1  UNL1        0.1564
      7 C          15.5514   41.4366    8.3445 C.ar    1  UNL1        0.1396
      8 C          16.4847   42.4612    8.1213 C.ar    1  UNL1        0.0370
      9 C          16.2000   43.4867    7.2167 C.ar    1  UNL1        0.0044
     10 C          14.9828   43.4937    6.5311 C.ar    1  UNL1        0.0149
     11 C          14.0417   42.4755    6.7454 C.ar    1  UNL1        0.0546
     12 C          14.3355   41.4524    7.6534 C.ar    1  UNL1        0.0516
     13 O          15.8066   40.3956    9.2421 O.3     1  UNL1       -0.4791
     14 C          14.8534   39.3801    9.5337 C.3     1  UNL1        0.1660
     15 C          15.5304   38.0267    9.4757 C.3     1  UNL1        0.0472
     16 C          12.7853   39.8507   10.8363 C.3     1  UNL1        0.0038
     17 C          14.2773   39.5937   10.9214 C.3     1  UNL1        0.0435
     18 C           9.1049   41.3780    5.9658 C.ar    1  UNL1        0.0516
     19 C           8.7989   40.0261    5.7445 C.ar    1  UNL1        0.0147
     20 C           7.5220   39.5341    6.0303 C.ar    1  UNL1        0.0013
     21 C           6.5419   40.3903    6.5394 C.ar    1  UNL1        0.0001
     22 C           6.8394   41.7374    6.7624 C.ar    1  UNL1        0.0013
     23 C           8.1171   42.2280    6.4760 C.ar    1  UNL1        0.0147
@<TRIPOS>BOND
     1    16    17    1
     2    14    17    1
     3    14    15    1
     4    14    13    1
     5     7    13    1
     6     8     9   ar
     7    10    11   ar
     8    11     3    1
     9     1     4   am
    10    19    20   ar
    11    21    22   ar
    12    23    18   ar
    13    12     7   ar
    14     3     1   am
    15     4    18    1
    16     7     8   ar
    17     9    10   ar
    18    11    12   ar
    19     1     2    2
    20    18    19   ar
    21    20    21   ar
    22    22    23   ar
    23     3     5    1
    24     4     6    1
@<TRIPOS>MOLECULE
MolPort-002-790-869 CSC020584203 CSSS00020584203 LN01039988 MCULE-9411463443 PubChem-17161549
 23 24 0 0 0
SMALL
GASTEIGER

@<TRIPOS>ATOM
      1 C           8.0502   41.7071   10.1006 C.2     1  UNL1        0.3082
      2 O           7.9526   40.9319    9.1115 O.2     1  UNL1       -0.2522
      3 N           9.3353   42.0681   10.6225 N.am    1  UNL1       -0.2680
      4 N           6.8785   42.2453   10.7261 N.am    1  UNL1       -0.2681
      5 H           9.3409   42.6771   11.3961 H       1  UNL1        0.1564
      6 H           7.0250   42.8442   11.4936 H       1  UNL1        0.1564
      7 C          12.3369   41.7840    8.4267 C.ar    1  UNL1        0.1396
      8 C          13.1052   40.8401    9.1262 C.ar    1  UNL1        0.0370
      9 C          12.6327   40.2970   10.3232 C.ar    1  UNL1        0.0044
     10 C          11.3916   40.6937   10.8269 C.ar    1  UNL1        0.0149
     11 C          10.6141   41.6361   10.1372 C.ar    1  UNL1        0.0546
     12 C          11.0955   42.1748    8.9390 C.ar    1  UNL1        0.0516
     13 O          12.7819   42.3472    7.2270 O.3     1  UNL1       -0.4791
     14 C          13.9690   43.1265    7.1365 C.3     1  UNL1        0.1660
     15 C          15.1621   42.2644    7.4923 C.3     1  UNL1        0.0472
     16 C          14.9179   44.9535    5.7375 C.3     1  UNL1        0.0038
     17 C          14.1353   43.6547    5.7235 C.3     1  UNL1        0.0435
     18 C           5.5148   42.0040   10.3523 C.ar    1  UNL1        0.0516
     19 C           4.8193   40.8597   10.7733 C.ar    1  UNL1        0.0147
     20 C           3.4905   40.6586   10.3886 C.ar    1  UNL1        0.0013
     21 C           2.8475   41.6000    9.5804 C.ar    1  UNL1        0.0001
     22 C           3.5338   42.7416    9.1576 C.ar    1  UNL1        0.0013
     23 C           4.8629   42.9414    9.5431 C.ar    1  UNL1        0.0147
@<TRIPOS>BOND
     1    16    17    1
     2    14    17    1
     3    14    15    1
     4    14    13    1
     5     7    13    1
     6     8     9   ar
     7    10    11   ar
     8    11     3    1
     9     1     4   am
    10    19    20   ar
    11    21    22   ar
    12    23    18   ar
    13    12     7   ar
    14     3     1   am
    15     4    18    1
    16     7     8   ar
    17     9    10   ar
    18    11    12   ar
    19     1     2    2
    20    18    19   ar
    21    20    21   ar
    22    22    23   ar
    23     3     5    1
    24     4     6    1
@<TRIPOS>MOLECULE
MolPort-002-790-869 CSC020584203 CSSS00020584203 LN01039988 MCULE-9411463443 PubChem-17161549
 23 24 0 0 0
SMALL
GASTEIGER

@<TRIPOS>ATOM
      1 C          16.1358   36.0614    9.0120 C.2     1  UNL1        0.3082
      2 O          15.1457   35.3685    9.3700 O.2     1  UNL1       -0.2522
      3 N          16.1476   37.4800    9.2164 N.am    1  UNL1       -0.2680
      4 N          17.2726   35.4469    8.3923 N.am    1  UNL1       -0.2681
      5 H          16.9512   37.9615    8.9138 H       1  UNL1        0.1564
      6 H          18.0117   36.0451    8.1371 H       1  UNL1        0.1564
      7 C          13.2272   39.7803    9.5197 C.ar    1  UNL1        0.1396
      8 C          13.0658   39.8431   10.9128 C.ar    1  UNL1        0.0370
      9 C          13.9210   39.1261   11.7526 C.ar    1  UNL1        0.0044
     10 C          14.9408   38.3434   11.2057 C.ar    1  UNL1        0.0149
     11 C          15.1125   38.2723    9.8151 C.ar    1  UNL1        0.0546
     12 C          14.2511   38.9939    8.9815 C.ar    1  UNL1        0.0516
     13 O          12.3874   40.4847    8.6521 O.3     1  UNL1       -0.4791
     14 C          11.9087   39.9357    7.4296 C.3     1  UNL1        0.1660
     15 C          10.5596   39.2895    7.6654 C.3     1  UNL1        0.0472
     16 C          11.0772   40.4938    5.1509 C.3     1  UNL1        0.0038
     17 C          11.7650   41.0324    6.3905 C.3     1  UNL1        0.0435
     18 C          17.4476   34.0526    8.1045 C.ar    1  UNL1        0.0516
     19 C          17.9431   33.1520    9.0604 C.ar    1  UNL1        0.0147
     20 C          18.1002   31.7997    8.7432 C.ar    1  UNL1        0.0013
     21 C          17.7628   31.3380    7.4681 C.ar    1  UNL1        0.0001
     22 C          17.2688   32.2289    6.5114 C.ar    1  UNL1        0.0013
     23 C          17.1123   33.5813    6.8302 C.ar    1  UNL1        0.0147
@<TRIPOS>BOND
     1    16    17    1
     2    14    17    1
     3    14    15    1
     4    14    13    1
     5     7    13    1
     6     8     9   ar
     7    10    11   ar
     8    11     3    1
     9     1     4   am
    10    19    20   ar
    11    21    22   ar
    12    23    18   ar
    13    12     7   ar
    14     3     1   am
    15     4    18    1
    16     7     8   ar
    17     9    10   ar
    18    11    12   ar
    19     1     2    2
    20    18    19   ar
    21    20    21   ar
    22    22    23   ar
    23     3     5    1
    24     4     6    1
@<TRIPOS>MOLECULE
MolPort-002-790-869 CSC020584203 CSSS00020584203 LN01039988 MCULE-9411463443 PubChem-17161549
 23 24 0 0 0
SMALL
GASTEIGER

@<TRIPOS>ATOM
      1 C          11.6987   41.8018    8.6804 C.2     1  UNL1        0.3082
      2 O          11.6230   43.0161    9.0095 O.2     1  UNL1       -0.2522
      3 N          10.7055   40.8636    9.1136 N.am    1  UNL1       -0.2680
      4 N          12.7795   41.3311    7.8655 N.am    1  UNL1       -0.2681
      5 H          10.8240   39.9309    8.8215 H       1  UNL1        0.1564
      6 H          12.7790   40.3717    7.6448 H       1  UNL1        0.1564
      7 C           7.1812   41.6437   10.0529 C.ar    1  UNL1        0.1396
      8 C           7.2690   41.6855   11.4534 C.ar    1  UNL1        0.0370
      9 C           8.4918   41.4561   12.0882 C.ar    1  UNL1        0.0044
     10 C           9.6320   41.1841   11.3281 C.ar    1  UNL1        0.0149
     11 C           9.5573   41.1396    9.9278 C.ar    1  UNL1        0.0546
     12 C           8.3282   41.3706    9.3005 C.ar    1  UNL1        0.0516
     13 O           5.9723   41.8675    9.3874 O.3     1  UNL1       -0.4791
     14 C           4.7462   42.0922   10.0737 C.3     1  UNL1        0.1660
     15 C           3.9797   43.1986    9.3798 C.3     1  UNL1        0.0472
     16 C           3.9612   40.1600   11.4322 C.3     1  UNL1        0.0038
     17 C           3.9110   40.8250   10.0704 C.3     1  UNL1        0.0435
     18 C          13.8621   42.1099    7.3372 C.ar    1  UNL1        0.0516
     19 C          15.1537   42.0561    7.8842 C.ar    1  UNL1        0.0147
     20 C          16.1839   42.8300    7.3422 C.ar    1  UNL1        0.0013
     21 C          15.9303   43.6632    6.2494 C.ar    1  UNL1        0.0001
     22 C          14.6469   43.7217    5.6994 C.ar    1  UNL1        0.0013
     23 C          13.6174   42.9470    6.2427 C.ar    1  UNL1        0.0147
@<TRIPOS>BOND
     1    16    17    1
     2    14    17    1
     3    14    15    1
     4    14    13    1
     5     7    13    1
     6     8     9   ar
     7    10    11   ar
     8    11     3    1
     9     1     4   am
    10    19    20   ar
    11    21    22   ar
    12    23    18   ar
    13    12     7   ar
    14     3     1   am
    15     4    18    1
    16     7     8   ar
    17     9    10   ar
    18    11    12   ar
    19     1     2    2
    20    18    19   ar
    21    20    21   ar
    22    22    23   ar
    23     3     5    1
    24     4     6    1
