@<TRIPOS>MOLECULE
Molport-047-648-712 MCULE-6469671298 PubChem-165890704
 22 22 0 0 0
SMALL
GASTEIGER

@<TRIPOS>ATOM
      1 C          12.9178   40.8302    8.2347 C.ar    1  UNL1        0.0529
      2 C          11.9326   40.1651    7.4970 C.ar    1  UNL1        0.0106
      3 C          10.7546   39.7312    8.1144 C.ar    1  UNL1       -0.0176
      4 C          10.5601   39.9590    9.4814 C.ar    1  UNL1       -0.0041
      5 C          11.5391   40.6220   10.2256 C.ar    1  UNL1        0.0010
      6 C          12.7133   41.0564    9.6047 C.ar    1  UNL1        0.0147
      7 C          14.3202   42.5177    6.9072 C.2     1  UNL1        0.4052
      8 O          13.4092   43.3897    6.8748 O.2     1  UNL1       -0.2261
      9 N          14.1093   41.2607    7.5624 N.am    1  UNL1       -0.2499
     10 H          14.8616   40.6257    7.5496 H       1  UNL1        0.1582
     11 O          15.5601   42.7612    6.3010 O.3     1  UNL1       -0.4417
     12 C          16.7556   44.0278    7.9907 C.3     1  UNL1        0.0437
     13 C          16.3618   43.9232    6.5275 C.3     1  UNL1        0.1378
     14 C          17.6239   43.8102    5.6990 C.3     1  UNL1        0.0437
     15 C          15.6199   45.1791    6.1032 C.3     1  UNL1        0.0437
     16 C           9.7123   39.0245    7.3131 C.3     1  UNL1        0.0733
     17 C           8.5694   39.9579    6.9327 C.3     1  UNL1        0.2627
     18 F           7.4553   39.1994    6.6194 F       1  UNL1       -0.2248
     19 C           8.9489   40.8305    5.7752 C.2     1  UNL1        0.3471
     20 O           8.9370   42.2125    5.9138 O.3     1  UNL1       -0.4783
     21 O           9.2603   40.3213    4.6662 O.2     1  UNL1       -0.2472
     22 H           8.7063   42.5989    6.7356 H       1  UNL1        0.2952
@<TRIPOS>BOND
     1    12    13    1
     2    13    11    1
     3    13    14    1
     4    13    15    1
     5     7    11    1
     6     7     9   am
     7     2     3   ar
     8    16     3    1
     9    16    17    1
    10    17    19    1
    11    17    18    1
    12    19    20    1
    13     4     5   ar
    14     6     1   ar
    15     9     1    1
    16     7     8    2
    17     1     2   ar
    18     3     4   ar
    19    19    21    2
    20     5     6   ar
    21    20    22    1
    22     9    10    1
@<TRIPOS>MOLECULE
Molport-047-648-712 MCULE-6469671298 PubChem-165890704
 22 22 0 0 0
SMALL
GASTEIGER

@<TRIPOS>ATOM
      1 C          13.5150   41.1133    7.5871 C.ar    1  UNL1        0.0529
      2 C          14.3457   42.1788    7.2240 C.ar    1  UNL1        0.0106
      3 C          15.5927   42.3475    7.8351 C.ar    1  UNL1       -0.0176
      4 C          16.0126   41.4475    8.8210 C.ar    1  UNL1       -0.0041
      5 C          15.1891   40.3810    9.1900 C.ar    1  UNL1        0.0010
      6 C          13.9452   40.2141    8.5752 C.ar    1  UNL1        0.0147
      7 C          10.9601   41.3035    7.4753 C.2     1  UNL1        0.4052
      8 O          10.8507   41.7670    8.6434 O.2     1  UNL1       -0.2261
      9 N          12.2458   40.9752    6.9339 N.am    1  UNL1       -0.2499
     10 H          12.2591   40.6172    6.0169 H       1  UNL1        0.1582
     11 O           9.8233   41.0991    6.6815 O.3     1  UNL1       -0.4417
     12 C           9.8540   39.2531    5.1067 C.3     1  UNL1        0.0437
     13 C           9.2585   39.8197    6.3840 C.3     1  UNL1        0.1378
     14 C           9.5770   38.8731    7.5217 C.3     1  UNL1        0.0437
     15 C           7.7486   39.9170    6.2488 C.3     1  UNL1        0.0437
     16 C          16.4680   43.4885    7.4353 C.3     1  UNL1        0.0733
     17 C          16.5668   43.6148    5.9199 C.3     1  UNL1        0.2627
     18 F          17.8566   43.9860    5.5832 F       1  UNL1       -0.2248
     19 C          15.5824   44.6165    5.3974 C.2     1  UNL1        0.3471
     20 O          15.5233   45.8878    5.9536 O.3     1  UNL1       -0.4783
     21 O          14.7901   44.3089    4.4681 O.2     1  UNL1       -0.2472
     22 H          16.1095   46.1242    6.6454 H       1  UNL1        0.2952
@<TRIPOS>BOND
     1    12    13    1
     2    13    11    1
     3    13    14    1
     4    13    15    1
     5     7    11    1
     6     7     9   am
     7     2     3   ar
     8    16     3    1
     9    16    17    1
    10    17    19    1
    11    17    18    1
    12    19    20    1
    13     4     5   ar
    14     6     1   ar
    15     9     1    1
    16     7     8    2
    17     1     2   ar
    18     3     4   ar
    19    19    21    2
    20     5     6   ar
    21    20    22    1
    22     9    10    1
@<TRIPOS>MOLECULE
Molport-047-648-712 MCULE-6469671298 PubChem-165890704
 22 22 0 0 0
SMALL
GASTEIGER

@<TRIPOS>ATOM
      1 C          13.2027   40.8050    8.6414 C.ar    1  UNL1        0.0529
      2 C          11.9448   40.6333    8.0539 C.ar    1  UNL1        0.0106
      3 C          10.8543   40.2100    8.8212 C.ar    1  UNL1       -0.0176
      4 C          11.0219   39.9510   10.1861 C.ar    1  UNL1       -0.0041
      5 C          12.2748   40.1194   10.7807 C.ar    1  UNL1        0.0010
      6 C          13.3611   40.5452   10.0115 C.ar    1  UNL1        0.0147
      7 C          14.4032   42.4966    7.1333 C.2     1  UNL1        0.4052
      8 O          13.4847   43.3577    7.2109 O.2     1  UNL1       -0.2261
      9 N          14.2933   41.2431    7.8194 N.am    1  UNL1       -0.2499
     10 H          15.0457   40.6168    7.7155 H       1  UNL1        0.1582
     11 O          15.5526   42.7488    6.3721 O.3     1  UNL1       -0.4417
     12 C          17.6239   43.7797    5.6404 C.3     1  UNL1        0.0437
     13 C          16.3970   43.8919    6.5288 C.3     1  UNL1        0.1378
     14 C          15.6218   45.1266    6.1206 C.3     1  UNL1        0.0437
     15 C          16.8238   44.0503    7.9780 C.3     1  UNL1        0.0437
     16 C           9.5182   40.0332    8.1798 C.3     1  UNL1        0.0733
     17 C           8.7351   41.3401    8.1467 C.3     1  UNL1        0.2627
     18 F           9.4838   42.3280    8.7616 F       1  UNL1       -0.2248
     19 C           7.4086   41.1907    8.8274 C.2     1  UNL1        0.3471
     20 O           7.3396   41.1542   10.2141 O.3     1  UNL1       -0.4783
     21 O           6.3524   41.0769    8.1509 O.2     1  UNL1       -0.2472
     22 H           8.1210   41.2382   10.7244 H       1  UNL1        0.2952
@<TRIPOS>BOND
     1    12    13    1
     2    13    11    1
     3    13    14    1
     4    13    15    1
     5     7    11    1
     6     7     9   am
     7     2     3   ar
     8    16     3    1
     9    16    17    1
    10    17    19    1
    11    17    18    1
    12    19    20    1
    13     4     5   ar
    14     6     1   ar
    15     9     1    1
    16     7     8    2
    17     1     2   ar
    18     3     4   ar
    19    19    21    2
    20     5     6   ar
    21    20    22    1
    22     9    10    1
@<TRIPOS>MOLECULE
Molport-047-648-712 MCULE-6469671298 PubChem-165890704
 22 22 0 0 0
SMALL
GASTEIGER

@<TRIPOS>ATOM
      1 C           8.9336   40.7979    7.6478 C.ar    1  UNL1        0.0529
      2 C           9.1899   40.4502    6.3172 C.ar    1  UNL1        0.0106
      3 C          10.4490   40.6804    5.7527 C.ar    1  UNL1       -0.0176
      4 C          11.4602   41.2673    6.5218 C.ar    1  UNL1       -0.0041
      5 C          11.2127   41.6181    7.8512 C.ar    1  UNL1        0.0010
      6 C           9.9543   41.3840    8.4124 C.ar    1  UNL1        0.0147
      7 C           6.5101   41.4365    8.1912 C.2     1  UNL1        0.4052
      8 O           6.6021   42.5881    7.6846 O.2     1  UNL1       -0.2261
      9 N           7.6300   40.5423    8.1882 N.am    1  UNL1       -0.2499
     10 H           7.4896   39.6594    8.6007 H       1  UNL1        0.1582
     11 O           5.3075   41.0075    8.7692 O.3     1  UNL1       -0.4417
     12 C           6.0366   41.5067   11.0292 C.3     1  UNL1        0.0437
     13 C           4.8602   41.3685   10.0783 C.3     1  UNL1        0.1378
     14 C           4.1512   42.7037    9.9969 C.3     1  UNL1        0.0437
     15 C           3.8825   40.3376   10.6156 C.3     1  UNL1        0.0437
     16 C          10.7071   40.3021    4.3321 C.3     1  UNL1        0.0733
     17 C          10.6838   38.7904    4.1416 C.3     1  UNL1        0.2627
     18 F          11.8824   38.3901    3.5780 F       1  UNL1       -0.2248
     19 C           9.5347   38.3742    3.2745 C.2     1  UNL1        0.3471
     20 O           9.2735   37.0259    3.0673 O.3     1  UNL1       -0.4783
     21 O           8.8124   39.2392    2.7123 O.2     1  UNL1       -0.2472
     22 H           9.8064   36.3763    3.4821 H       1  UNL1        0.2952
@<TRIPOS>BOND
     1    12    13    1
     2    13    11    1
     3    13    14    1
     4    13    15    1
     5     7    11    1
     6     7     9   am
     7     2     3   ar
     8    16     3    1
     9    16    17    1
    10    17    19    1
    11    17    18    1
    12    19    20    1
    13     4     5   ar
    14     6     1   ar
    15     9     1    1
    16     7     8    2
    17     1     2   ar
    18     3     4   ar
    19    19    21    2
    20     5     6   ar
    21    20    22    1
    22     9    10    1
@<TRIPOS>MOLECULE
Molport-047-648-712 MCULE-6469671298 PubChem-165890704
 22 22 0 0 0
SMALL
GASTEIGER

@<TRIPOS>ATOM
      1 C          12.3143   41.2502    7.5389 C.ar    1  UNL1        0.0529
      2 C          11.4050   41.9812    8.3108 C.ar    1  UNL1        0.0106
      3 C          10.0358   41.7000    8.2514 C.ar    1  UNL1       -0.0176
      4 C           9.5695   40.6834    7.4104 C.ar    1  UNL1       -0.0041
      5 C          10.4707   39.9488    6.6358 C.ar    1  UNL1        0.0010
      6 C          11.8380   40.2307    6.7000 C.ar    1  UNL1        0.0147
      7 C          14.4724   42.3646    6.7158 C.2     1  UNL1        0.4052
      8 O          13.9309   42.8725    5.6959 O.2     1  UNL1       -0.2261
      9 N          13.7096   41.5689    7.6317 N.am    1  UNL1       -0.2499
     10 H          14.1945   41.2024    8.4061 H       1  UNL1        0.1582
     11 O          15.8347   42.5685    6.9742 O.3     1  UNL1       -0.4417
     12 C          17.2671   44.2010    8.0567 C.3     1  UNL1        0.0437
     13 C          16.5197   43.8104    6.7933 C.3     1  UNL1        0.1378
     14 C          17.5249   43.6506    5.6726 C.3     1  UNL1        0.0437
     15 C          15.5451   44.9111    6.4109 C.3     1  UNL1        0.0437
     16 C           9.0786   42.4879    9.0825 C.3     1  UNL1        0.0733
     17 C           9.0999   42.0393   10.5387 C.3     1  UNL1        0.2627
     18 F           9.7996   40.8492   10.6319 F       1  UNL1       -0.2248
     19 C           7.7094   41.8701   11.0708 C.2     1  UNL1        0.3471
     20 O           7.4442   42.1149   12.4120 O.3     1  UNL1       -0.4783
     21 O           6.7782   41.4865   10.3147 O.2     1  UNL1       -0.2472
     22 H           8.1317   42.4006   12.9810 H       1  UNL1        0.2952
@<TRIPOS>BOND
     1    12    13    1
     2    13    11    1
     3    13    14    1
     4    13    15    1
     5     7    11    1
     6     7     9   am
     7     2     3   ar
     8    16     3    1
     9    16    17    1
    10    17    19    1
    11    17    18    1
    12    19    20    1
    13     4     5   ar
    14     6     1   ar
    15     9     1    1
    16     7     8    2
    17     1     2   ar
    18     3     4   ar
    19    19    21    2
    20     5     6   ar
    21    20    22    1
    22     9    10    1
@<TRIPOS>MOLECULE
Molport-047-648-712 MCULE-6469671298 PubChem-165890704
 22 22 0 0 0
SMALL
GASTEIGER

@<TRIPOS>ATOM
      1 C          12.6615   40.8602    8.2319 C.ar    1  UNL1        0.0529
      2 C          11.9457   41.4456    9.2817 C.ar    1  UNL1        0.0106
      3 C          11.2923   40.6481   10.2274 C.ar    1  UNL1       -0.0176
      4 C          11.3498   39.2539   10.1217 C.ar    1  UNL1       -0.0041
      5 C          12.0620   38.6611    9.0762 C.ar    1  UNL1        0.0010
      6 C          12.7157   39.4611    8.1350 C.ar    1  UNL1        0.0147
      7 C          14.7046   42.0800    7.2758 C.2     1  UNL1        0.4052
      8 O          15.4931   41.6466    8.1599 O.2     1  UNL1       -0.2261
      9 N          13.3190   41.7141    7.2857 N.am    1  UNL1       -0.2499
     10 H          12.7596   42.0883    6.5672 H       1  UNL1        0.1582
     11 O          15.1689   42.9309    6.2635 O.3     1  UNL1       -0.4417
     12 C          17.3532   43.7411    5.5843 C.3     1  UNL1        0.0437
     13 C          16.1296   43.9726    6.4540 C.3     1  UNL1        0.1378
     14 C          15.5008   45.2906    6.0545 C.3     1  UNL1        0.0437
     15 C          16.5444   44.0612    7.9126 C.3     1  UNL1        0.0437
     16 C          10.5341   41.2880   11.3426 C.3     1  UNL1        0.0733
     17 C           9.3938   42.1537   10.8207 C.3     1  UNL1        0.2627
     18 F           9.7256   43.4858   10.9938 F       1  UNL1       -0.2248
     19 C           8.1111   41.8392   11.5286 C.2     1  UNL1        0.3471
     20 O           7.0795   41.2052   10.8482 O.3     1  UNL1       -0.4783
     21 O           7.9506   42.1641   12.7347 O.2     1  UNL1       -0.2472
     22 H           7.1912   40.9603    9.9506 H       1  UNL1        0.2952
@<TRIPOS>BOND
     1    12    13    1
     2    13    11    1
     3    13    14    1
     4    13    15    1
     5     7    11    1
     6     7     9   am
     7     2     3   ar
     8    16     3    1
     9    16    17    1
    10    17    19    1
    11    17    18    1
    12    19    20    1
    13     4     5   ar
    14     6     1   ar
    15     9     1    1
    16     7     8    2
    17     1     2   ar
    18     3     4   ar
    19    19    21    2
    20     5     6   ar
    21    20    22    1
    22     9    10    1
@<TRIPOS>MOLECULE
Molport-047-648-712 MCULE-6469671298 PubChem-165890704
 22 22 0 0 0
SMALL
GASTEIGER

@<TRIPOS>ATOM
      1 C          12.6242   40.8858    7.7515 C.ar    1  UNL1        0.0529
      2 C          13.0509   41.8310    6.8126 C.ar    1  UNL1        0.0106
      3 C          14.3513   42.3445    6.8622 C.ar    1  UNL1       -0.0176
      4 C          15.2323   41.9142    7.8606 C.ar    1  UNL1       -0.0041
      5 C          14.8143   40.9709    8.8024 C.ar    1  UNL1        0.0010
      6 C          13.5153   40.4582    8.7480 C.ar    1  UNL1        0.0147
      7 C          10.0781   41.0898    7.9799 C.2     1  UNL1        0.4052
      8 O          10.1171   42.2833    8.3864 O.2     1  UNL1       -0.2261
      9 N          11.2839   40.3830    7.6632 N.am    1  UNL1       -0.2499
     10 H          11.1815   39.4545    7.3523 H       1  UNL1        0.1582
     11 O           8.8513   40.4289    7.8300 O.3     1  UNL1       -0.4417
     12 C           6.9815   39.7293    6.4506 C.3     1  UNL1        0.0437
     13 C           8.4798   39.6531    6.6880 C.3     1  UNL1        0.1378
     14 C           9.1862   40.2126    5.4715 C.3     1  UNL1        0.0437
     15 C           8.9000   38.2038    6.8629 C.3     1  UNL1        0.0437
     16 C          14.7918   43.3513    5.8521 C.3     1  UNL1        0.0733
     17 C          15.6026   44.4709    6.4934 C.3     1  UNL1        0.2627
     18 F          15.2119   45.6795    5.9446 F       1  UNL1       -0.2248
     19 C          17.0717   44.2563    6.2909 C.2     1  UNL1        0.3471
     20 O          17.9442   44.3642    7.3661 O.3     1  UNL1       -0.4783
     21 O          17.5279   43.9982    5.1458 O.2     1  UNL1       -0.2472
     22 H          17.6126   44.5560    8.2212 H       1  UNL1        0.2952
@<TRIPOS>BOND
     1    12    13    1
     2    13    11    1
     3    13    14    1
     4    13    15    1
     5     7    11    1
     6     7     9   am
     7     2     3   ar
     8    16     3    1
     9    16    17    1
    10    17    19    1
    11    17    18    1
    12    19    20    1
    13     4     5   ar
    14     6     1   ar
    15     9     1    1
    16     7     8    2
    17     1     2   ar
    18     3     4   ar
    19    19    21    2
    20     5     6   ar
    21    20    22    1
    22     9    10    1
@<TRIPOS>MOLECULE
Molport-047-648-712 MCULE-6469671298 PubChem-165890704
 22 22 0 0 0
SMALL
GASTEIGER

@<TRIPOS>ATOM
      1 C          12.0556   40.8947    8.2592 C.ar    1  UNL1        0.0529
      2 C          12.8053   40.2353    9.2391 C.ar    1  UNL1        0.0106
      3 C          14.1937   40.3966    9.2995 C.ar    1  UNL1       -0.0176
      4 C          14.8401   41.2197    8.3705 C.ar    1  UNL1       -0.0041
      5 C          14.0991   41.8814    7.3884 C.ar    1  UNL1        0.0010
      6 C          12.7120   41.7200    7.3331 C.ar    1  UNL1        0.0147
      7 C           9.6388   41.5896    8.7621 C.2     1  UNL1        0.4052
      8 O           9.9683   42.6703    9.3233 O.2     1  UNL1       -0.2261
      9 N          10.6343   40.7040    8.2344 N.am    1  UNL1       -0.2499
     10 H          10.3082   39.8776    7.8101 H       1  UNL1        0.1582
     11 O           8.2889   41.2321    8.6436 O.3     1  UNL1       -0.4417
     12 C           5.8711   41.3631    8.8051 C.3     1  UNL1        0.0437
     13 C           7.2043   41.9383    9.2514 C.3     1  UNL1        0.1378
     14 C           7.3108   41.7895   10.7542 C.3     1  UNL1        0.0437
     15 C           7.2670   43.4170    8.9097 C.3     1  UNL1        0.0437
     16 C          14.9792   39.6875   10.3521 C.3     1  UNL1        0.0733
     17 C          14.1064   38.7276   11.1514 C.3     1  UNL1        0.2627
     18 F          13.7849   39.3150   12.3623 F       1  UNL1       -0.2248
     19 C          14.8064   37.4216   11.3745 C.2     1  UNL1        0.3471
     20 O          14.3699   36.2783   10.7177 O.3     1  UNL1       -0.4783
     21 O          15.7787   37.3458   12.1714 O.2     1  UNL1       -0.2472
     22 H          13.6471   36.3266   10.1233 H       1  UNL1        0.2952
@<TRIPOS>BOND
     1    12    13    1
     2    13    11    1
     3    13    14    1
     4    13    15    1
     5     7    11    1
     6     7     9   am
     7     2     3   ar
     8    16     3    1
     9    16    17    1
    10    17    19    1
    11    17    18    1
    12    19    20    1
    13     4     5   ar
    14     6     1   ar
    15     9     1    1
    16     7     8    2
    17     1     2   ar
    18     3     4   ar
    19    19    21    2
    20     5     6   ar
    21    20    22    1
    22     9    10    1
@<TRIPOS>MOLECULE
Molport-047-648-712 MCULE-6469671298 PubChem-165890704
 22 22 0 0 0
SMALL
GASTEIGER

@<TRIPOS>ATOM
      1 C          12.3867   40.4623    8.4957 C.ar    1  UNL1        0.0529
      2 C          12.0710   40.3751    7.1357 C.ar    1  UNL1        0.0106
      3 C          10.9398   41.0214    6.6261 C.ar    1  UNL1       -0.0176
      4 C          10.1135   41.7576    7.4826 C.ar    1  UNL1       -0.0041
      5 C          10.4211   41.8495    8.8422 C.ar    1  UNL1        0.0010
      6 C          11.5536   41.2047    9.3470 C.ar    1  UNL1        0.0147
      7 C          14.8994   40.2886    8.9782 C.2     1  UNL1        0.4052
      8 O          15.1600   41.4367    8.5252 O.2     1  UNL1       -0.2261
      9 N          13.5570   39.7868    8.9764 N.am    1  UNL1       -0.2499
     10 H          13.4241   38.8832    9.3439 H       1  UNL1        0.1582
     11 O          15.9203   39.4782    9.4932 O.3     1  UNL1       -0.4417
     12 C          15.1322   37.2019    9.7866 C.3     1  UNL1        0.0437
     13 C          15.7248   38.4334   10.4495 C.3     1  UNL1        0.1378
     14 C          17.0677   38.0596   11.0402 C.3     1  UNL1        0.0437
     15 C          14.8176   38.8983   11.5757 C.3     1  UNL1        0.0437
     16 C          10.6177   40.9201    5.1722 C.3     1  UNL1        0.0733
     17 C          10.5194   39.4682    4.7199 C.3     1  UNL1        0.2627
     18 F          11.4155   39.2580    3.6866 F       1  UNL1       -0.2248
     19 C           9.1268   39.1343    4.2789 C.2     1  UNL1        0.3471
     20 O           8.8202   39.0833    2.9252 O.3     1  UNL1       -0.4783
     21 O           8.2221   38.9185    5.1280 O.2     1  UNL1       -0.2472
     22 H           9.4878   39.2427    2.2873 H       1  UNL1        0.2952
@<TRIPOS>BOND
     1    12    13    1
     2    13    11    1
     3    13    14    1
     4    13    15    1
     5     7    11    1
     6     7     9   am
     7     2     3   ar
     8    16     3    1
     9    16    17    1
    10    17    19    1
    11    17    18    1
    12    19    20    1
    13     4     5   ar
    14     6     1   ar
    15     9     1    1
    16     7     8    2
    17     1     2   ar
    18     3     4   ar
    19    19    21    2
    20     5     6   ar
    21    20    22    1
    22     9    10    1
@<TRIPOS>MOLECULE
Molport-047-648-712 MCULE-6469671298 PubChem-165890704
 22 22 0 0 0
SMALL
GASTEIGER

@<TRIPOS>ATOM
      1 C          13.3563   40.9613    9.1952 C.ar    1  UNL1        0.0529
      2 C          12.1944   41.4728    9.7830 C.ar    1  UNL1        0.0106
      3 C          11.6074   40.8262   10.8759 C.ar    1  UNL1       -0.0176
      4 C          12.1826   39.6560   11.3839 C.ar    1  UNL1       -0.0041
      5 C          13.3426   39.1381   10.8027 C.ar    1  UNL1        0.0010
      6 C          13.9276   39.7884    9.7127 C.ar    1  UNL1        0.0147
      7 C          15.3214   41.8306    7.7954 C.2     1  UNL1        0.4052
      8 O          16.2005   41.3520    8.5631 O.2     1  UNL1       -0.2261
      9 N          13.9273   41.6565    8.0783 N.am    1  UNL1       -0.2499
     10 H          13.2948   42.0563    7.4384 H       1  UNL1        0.1582
     11 O          15.6913   42.5448    6.6477 O.3     1  UNL1       -0.4417
     12 C          15.4524   44.9250    6.2399 C.3     1  UNL1        0.0437
     13 C          16.3809   43.7973    6.6564 C.3     1  UNL1        0.1378
     14 C          16.8676   44.0728    8.0632 C.3     1  UNL1        0.0437
     15 C          17.5852   43.7542    5.7315 C.3     1  UNL1        0.0437
     16 C          10.3687   41.3856   11.4928 C.3     1  UNL1        0.0733
     17 C           9.1601   41.2096   10.5816 C.3     1  UNL1        0.2627
     18 F           9.4375   41.7808    9.3522 F       1  UNL1       -0.2248
     19 C           7.9370   41.8328   11.1824 C.2     1  UNL1        0.3471
     20 O           8.0627   42.8908   12.0734 O.3     1  UNL1       -0.4783
     21 O           6.7914   41.3913   10.9019 O.2     1  UNL1       -0.2472
     22 H           8.9116   43.2250   12.2872 H       1  UNL1        0.2952
@<TRIPOS>BOND
     1    12    13    1
     2    13    11    1
     3    13    14    1
     4    13    15    1
     5     7    11    1
     6     7     9   am
     7     2     3   ar
     8    16     3    1
     9    16    17    1
    10    17    19    1
    11    17    18    1
    12    19    20    1
    13     4     5   ar
    14     6     1   ar
    15     9     1    1
    16     7     8    2
    17     1     2   ar
    18     3     4   ar
    19    19    21    2
    20     5     6   ar
    21    20    22    1
    22     9    10    1
