@<TRIPOS>MOLECULE
MolPort-002-599-853 2448110 CSSS00121610367 LN00628686 MCULE-5995874023 PubChem-2043544 ZINC000002448110 ZINC02448110
 25 27 0 0 0
SMALL
GASTEIGER

@<TRIPOS>ATOM
      1 C          13.8523   41.9262    7.1194 C.ar    1  UNL1        0.1568
      2 C          13.8781   40.9648    8.1182 C.ar    1  UNL1        0.0689
      3 C          14.7846   40.6285    9.1187 C.ar    1  UNL1        0.0074
      4 C          14.4645   39.5209    9.9228 C.ar    1  UNL1        0.0179
      5 C          15.3180   39.1305   10.9568 C.ar    1  UNL1        0.0015
      6 C          14.9937   38.0260   11.7505 C.ar    1  UNL1        0.0001
      7 C          13.8171   37.3067   11.5138 C.ar    1  UNL1        0.0015
      8 C          12.9536   37.6849   10.4808 C.ar    1  UNL1        0.0192
      9 C          13.2622   38.7868    9.6797 C.ar    1  UNL1        0.0829
     10 C          12.7472   40.2305    7.9094 C.ar    1  UNL1        0.1621
     11 N          12.0838   40.7024    6.8431 N.ar    1  UNL1       -0.2329
     12 N          12.7546   41.7366    6.3462 N.ar    1  UNL1       -0.1527
     13 N          12.4226   39.1510    8.6645 N.ar    1  UNL1       -0.2268
     14 C          14.6318   44.1335    6.1039 C.2     1  UNL1        0.2272
     15 N          14.8437   42.9196    6.8312 N.am    1  UNL1       -0.2679
     16 O          13.6043   44.2931    5.3937 O.2     1  UNL1       -0.2747
     17 H          15.7548   42.7515    7.1643 H       1  UNL1        0.1563
     18 C          15.6866   45.1869    6.1142 C.3     1  UNL1        0.0854
     19 C          17.0258   44.6093    6.5439 C.3     1  UNL1        0.0091
     20 C          17.5022   43.5768    5.5393 C.3     1  UNL1        0.0005
     21 C          16.8735   43.9488    7.8975 C.3     1  UNL1        0.0005
     22 C          10.8384   40.1862    6.2971 C.3     1  UNL1        0.1292
     23 C          10.5992   40.7611    4.9108 C.3     1  UNL1        0.0264
     24 C           9.4922   38.7993    3.8433 C.3     1  UNL1        0.0001
     25 C          10.7304   39.6758    3.8575 C.3     1  UNL1        0.0021
@<TRIPOS>BOND
     1    24    25    1
     2    25    23    1
     3    23    22    1
     4    22    11    1
     5     1    15    1
     6     1     2   ar
     7    18    14    1
     8    18    19    1
     9    19    20    1
    10    19    21    1
    11     3     4   ar
    12     5     6   ar
    13     7     8   ar
    14     9    13   ar
    15     9     4   ar
    16    10    11   ar
    17    10     2   ar
    18    11    12   ar
    19    15    14   am
    20     1    12   ar
    21    14    16    2
    22     2     3   ar
    23     4     5   ar
    24     6     7   ar
    25     8     9   ar
    26    10    13   ar
    27    15    17    1
@<TRIPOS>MOLECULE
MolPort-002-599-853 2448110 CSSS00121610367 LN00628686 MCULE-5995874023 PubChem-2043544 ZINC000002448110 ZINC02448110
 25 27 0 0 0
SMALL
GASTEIGER

@<TRIPOS>ATOM
      1 C          13.0635   41.8330    6.9797 C.ar    1  UNL1        0.1568
      2 C          12.8165   40.7141    7.7606 C.ar    1  UNL1        0.0689
      3 C          13.5949   39.9284    8.6046 C.ar    1  UNL1        0.0074
      4 C          12.9723   38.8129    9.1911 C.ar    1  UNL1        0.0179
      5 C          13.6846   37.9845   10.0608 C.ar    1  UNL1        0.0015
      6 C          13.0587   36.8754   10.6380 C.ar    1  UNL1        0.0001
      7 C          11.7203   36.5886   10.3479 C.ar    1  UNL1        0.0015
      8 C          10.9950   37.4082    9.4772 C.ar    1  UNL1        0.0192
      9 C          11.6049   38.5210    8.8934 C.ar    1  UNL1        0.0829
     10 C          11.5177   40.3944    7.4912 C.ar    1  UNL1        0.1621
     11 N          11.0107   41.2517    6.5925 N.ar    1  UNL1       -0.2329
     12 N          11.9502   42.1333    6.2660 N.ar    1  UNL1       -0.1527
     13 N          10.8985   39.3169    8.0358 N.ar    1  UNL1       -0.2268
     14 C          14.4560   43.8502    6.2705 C.2     1  UNL1        0.2272
     15 N          14.2998   42.5406    6.8255 N.am    1  UNL1       -0.2679
     16 O          13.5375   44.3809    5.5922 O.2     1  UNL1       -0.2747
     17 H          15.1171   42.0836    7.1295 H       1  UNL1        0.1563
     18 C          15.7595   44.5579    6.4201 C.3     1  UNL1        0.0854
     19 C          16.8682   43.5824    6.7815 C.3     1  UNL1        0.0091
     20 C          17.5001   43.9683    8.1059 C.3     1  UNL1        0.0005
     21 C          17.9284   43.6090    5.7012 C.3     1  UNL1        0.0005
     22 C           9.6628   41.2404    6.0459 C.3     1  UNL1        0.1292
     23 C           8.7084   41.9420    6.9980 C.3     1  UNL1        0.0264
     24 C           6.8258   43.5731    7.0924 C.3     1  UNL1        0.0001
     25 C           7.5521   42.5574    6.2308 C.3     1  UNL1        0.0021
@<TRIPOS>BOND
     1    24    25    1
     2    25    23    1
     3    23    22    1
     4    22    11    1
     5     1    15    1
     6     1     2   ar
     7    18    14    1
     8    18    19    1
     9    19    20    1
    10    19    21    1
    11     3     4   ar
    12     5     6   ar
    13     7     8   ar
    14     9    13   ar
    15     9     4   ar
    16    10    11   ar
    17    10     2   ar
    18    11    12   ar
    19    15    14   am
    20     1    12   ar
    21    14    16    2
    22     2     3   ar
    23     4     5   ar
    24     6     7   ar
    25     8     9   ar
    26    10    13   ar
    27    15    17    1
@<TRIPOS>MOLECULE
MolPort-002-599-853 2448110 CSSS00121610367 LN00628686 MCULE-5995874023 PubChem-2043544 ZINC000002448110 ZINC02448110
 25 27 0 0 0
SMALL
GASTEIGER

@<TRIPOS>ATOM
      1 C          12.0003   42.0234    7.8926 C.ar    1  UNL1        0.1568
      2 C          12.8756   41.2748    8.6646 C.ar    1  UNL1        0.0689
      3 C          12.7311   40.4655    9.7870 C.ar    1  UNL1        0.0074
      4 C          13.9034   39.9064   10.3248 C.ar    1  UNL1        0.0179
      5 C          13.8376   39.0719   11.4426 C.ar    1  UNL1        0.0015
      6 C          15.0085   38.5218   11.9731 C.ar    1  UNL1        0.0001
      7 C          16.2490   38.8041   11.3906 C.ar    1  UNL1        0.0015
      8 C          16.3305   39.6396   10.2721 C.ar    1  UNL1        0.0192
      9 C          15.1701   40.1959    9.7289 C.ar    1  UNL1        0.0829
     10 C          14.1044   41.5378    8.1329 C.ar    1  UNL1        0.1621
     11 N          13.9883   42.4030    7.1142 N.ar    1  UNL1       -0.2329
     12 N          12.7049   42.7134    6.9619 N.ar    1  UNL1       -0.1527
     13 N          15.2507   41.0194    8.6410 N.ar    1  UNL1       -0.2268
     14 C           9.5793   41.7716    7.1269 C.2     1  UNL1        0.2272
     15 N          10.5853   42.1707    8.0628 N.am    1  UNL1       -0.2679
     16 O           9.8720   41.5186    5.9286 O.2     1  UNL1       -0.2747
     17 H          10.2768   42.5848    8.9010 H       1  UNL1        0.1563
     18 C           8.1513   41.7443    7.5542 C.3     1  UNL1        0.0854
     19 C           7.5764   43.1504    7.6153 C.3     1  UNL1        0.0091
     20 C           6.7347   43.3228    8.8660 C.3     1  UNL1        0.0005
     21 C           6.7080   43.3881    6.3982 C.3     1  UNL1        0.0005
     22 C          15.0689   42.9328    6.2975 C.3     1  UNL1        0.1292
     23 C          15.6828   44.1492    6.9706 C.3     1  UNL1        0.0264
     24 C          17.5772   43.7518    8.5414 C.3     1  UNL1        0.0001
     25 C          17.1867   43.9837    7.0938 C.3     1  UNL1        0.0021
@<TRIPOS>BOND
     1    24    25    1
     2    25    23    1
     3    23    22    1
     4    22    11    1
     5     1    15    1
     6     1     2   ar
     7    18    14    1
     8    18    19    1
     9    19    20    1
    10    19    21    1
    11     3     4   ar
    12     5     6   ar
    13     7     8   ar
    14     9    13   ar
    15     9     4   ar
    16    10    11   ar
    17    10     2   ar
    18    11    12   ar
    19    15    14   am
    20     1    12   ar
    21    14    16    2
    22     2     3   ar
    23     4     5   ar
    24     6     7   ar
    25     8     9   ar
    26    10    13   ar
    27    15    17    1
@<TRIPOS>MOLECULE
MolPort-002-599-853 2448110 CSSS00121610367 LN00628686 MCULE-5995874023 PubChem-2043544 ZINC000002448110 ZINC02448110
 25 27 0 0 0
SMALL
GASTEIGER

@<TRIPOS>ATOM
      1 C          11.8712   41.7503    8.5426 C.ar    1  UNL1        0.1568
      2 C          12.8713   41.0142    9.1596 C.ar    1  UNL1        0.0689
      3 C          12.9264   40.2126   10.2954 C.ar    1  UNL1        0.0074
      4 C          14.1777   39.6665   10.6300 C.ar    1  UNL1        0.0179
      5 C          14.3099   38.8403   11.7480 C.ar    1  UNL1        0.0015
      6 C          15.5586   38.3031   12.0756 C.ar    1  UNL1        0.0001
      7 C          16.6797   38.5901   11.2891 C.ar    1  UNL1        0.0015
      8 C          16.5629   39.4175   10.1677 C.ar    1  UNL1        0.0192
      9 C          15.3224   39.9609    9.8258 C.ar    1  UNL1        0.0829
     10 C          13.9897   41.2823    8.4254 C.ar    1  UNL1        0.1621
     11 N          13.6949   42.1386    7.4357 N.ar    1  UNL1       -0.2329
     12 N          12.4016   42.4383    7.5014 N.ar    1  UNL1       -0.1527
     13 N          15.2101   40.7764    8.7348 N.ar    1  UNL1       -0.2268
     14 C           9.9625   42.9600    9.7278 C.2     1  UNL1        0.2272
     15 N          10.5044   41.8884    8.9497 N.am    1  UNL1       -0.2679
     16 O          10.7137   43.7344   10.3771 O.2     1  UNL1       -0.2747
     17 H           9.8806   41.1807    8.6680 H       1  UNL1        0.1563
     18 C           8.4834   43.1045    9.8449 C.3     1  UNL1        0.0854
     19 C           7.8570   41.8370   10.4039 C.3     1  UNL1        0.0091
     20 C           6.3780   41.7868   10.0687 C.3     1  UNL1        0.0005
     21 C           8.0240   41.8191   11.9084 C.3     1  UNL1        0.0005
     22 C          14.6166   42.6701    6.4440 C.3     1  UNL1        0.1292
     23 C          14.0532   43.9455    5.8395 C.3     1  UNL1        0.0264
     24 C          16.4291   44.5075    6.3423 C.3     1  UNL1        0.0001
     25 C          15.0937   45.0505    5.8695 C.3     1  UNL1        0.0021
@<TRIPOS>BOND
     1    24    25    1
     2    25    23    1
     3    23    22    1
     4    22    11    1
     5     1    15    1
     6     1     2   ar
     7    18    14    1
     8    18    19    1
     9    19    20    1
    10    19    21    1
    11     3     4   ar
    12     5     6   ar
    13     7     8   ar
    14     9    13   ar
    15     9     4   ar
    16    10    11   ar
    17    10     2   ar
    18    11    12   ar
    19    15    14   am
    20     1    12   ar
    21    14    16    2
    22     2     3   ar
    23     4     5   ar
    24     6     7   ar
    25     8     9   ar
    26    10    13   ar
    27    15    17    1
@<TRIPOS>MOLECULE
MolPort-002-599-853 2448110 CSSS00121610367 LN00628686 MCULE-5995874023 PubChem-2043544 ZINC000002448110 ZINC02448110
 25 27 0 0 0
SMALL
GASTEIGER

@<TRIPOS>ATOM
      1 C          12.2261   40.6989    7.6018 C.ar    1  UNL1        0.1568
      2 C          13.4183   41.4059    7.5654 C.ar    1  UNL1        0.0689
      3 C          13.8656   42.5189    6.8606 C.ar    1  UNL1        0.0074
      4 C          15.1999   42.9100    7.0670 C.ar    1  UNL1        0.0179
      5 C          15.7175   44.0259    6.4059 C.ar    1  UNL1        0.0015
      6 C          17.0466   44.4069    6.6147 C.ar    1  UNL1        0.0001
      7 C          17.8638   43.6744    7.4828 C.ar    1  UNL1        0.0015
      8 C          17.3597   42.5536    8.1503 C.ar    1  UNL1        0.0192
      9 C          16.0337   42.1606    7.9540 C.ar    1  UNL1        0.0829
     10 C          14.2495   40.7091    8.3932 C.ar    1  UNL1        0.1621
     11 N          13.6116   39.6380    8.8889 N.ar    1  UNL1       -0.2329
     12 N          12.3736   39.6169    8.4057 N.ar    1  UNL1       -0.1527
     13 N          15.5437   41.0601    8.5997 N.ar    1  UNL1       -0.2268
     14 C           9.7881   41.4221    7.3910 C.2     1  UNL1        0.2272
     15 N          11.0301   40.9552    6.8555 N.am    1  UNL1       -0.2679
     16 O           9.5532   41.3674    8.6269 O.2     1  UNL1       -0.2747
     17 H          11.0663   40.7953    5.8847 H       1  UNL1        0.1563
     18 C           8.7219   41.8945    6.4624 C.3     1  UNL1        0.0854
     19 C           7.5004   42.3673    7.2345 C.3     1  UNL1        0.0091
     20 C           6.5187   41.2254    7.4203 C.3     1  UNL1        0.0005
     21 C           6.8234   43.4812    6.4645 C.3     1  UNL1        0.0005
     22 C          14.1593   38.6466    9.8014 C.3     1  UNL1        0.1292
     23 C          13.9701   39.1009   11.2393 C.3     1  UNL1        0.0264
     24 C          16.4537   38.9178   11.3507 C.3     1  UNL1        0.0001
     25 C          15.1519   38.6719   12.0901 C.3     1  UNL1        0.0021
@<TRIPOS>BOND
     1    24    25    1
     2    25    23    1
     3    23    22    1
     4    22    11    1
     5     1    15    1
     6     1     2   ar
     7    18    14    1
     8    18    19    1
     9    19    20    1
    10    19    21    1
    11     3     4   ar
    12     5     6   ar
    13     7     8   ar
    14     9    13   ar
    15     9     4   ar
    16    10    11   ar
    17    10     2   ar
    18    11    12   ar
    19    15    14   am
    20     1    12   ar
    21    14    16    2
    22     2     3   ar
    23     4     5   ar
    24     6     7   ar
    25     8     9   ar
    26    10    13   ar
    27    15    17    1
@<TRIPOS>MOLECULE
MolPort-002-599-853 2448110 CSSS00121610367 LN00628686 MCULE-5995874023 PubChem-2043544 ZINC000002448110 ZINC02448110
 25 27 0 0 0
SMALL
GASTEIGER

@<TRIPOS>ATOM
      1 C          13.7154   41.5155    7.2820 C.ar    1  UNL1        0.1568
      2 C          13.2486   40.4297    8.0071 C.ar    1  UNL1        0.0689
      3 C          13.8126   39.5789    8.9524 C.ar    1  UNL1        0.0074
      4 C          13.0058   38.5309    9.4285 C.ar    1  UNL1        0.0179
      5 C          13.4968   37.6440   10.3889 C.ar    1  UNL1        0.0015
      6 C          12.6889   36.6025   10.8555 C.ar    1  UNL1        0.0001
      7 C          11.3888   36.4419   10.3637 C.ar    1  UNL1        0.0015
      8 C          10.8843   37.3212    9.4004 C.ar    1  UNL1        0.0192
      9 C          11.6779   38.3678    8.9250 C.ar    1  UNL1        0.0829
     10 C          11.9812   40.2326    7.5416 C.ar    1  UNL1        0.1621
     11 N          11.6993   41.1286    6.5838 N.ar    1  UNL1       -0.2329
     12 N          12.7565   41.9154    6.4107 N.ar    1  UNL1       -0.1527
     13 N          11.1878   39.2218    7.9771 N.ar    1  UNL1       -0.2268
     14 C          16.0398   41.8229    8.2889 C.2     1  UNL1        0.2272
     15 N          15.0220   42.1021    7.3226 N.am    1  UNL1       -0.2679
     16 O          15.7639   41.2450    9.3730 O.2     1  UNL1       -0.2747
     17 H          15.2396   42.7576    6.6211 H       1  UNL1        0.1563
     18 C          17.4296   42.3056    8.0485 C.3     1  UNL1        0.0854
     19 C          17.4397   43.4588    7.0578 C.3     1  UNL1        0.0091
     20 C          18.6993   44.2880    7.2255 C.3     1  UNL1        0.0005
     21 C          16.2323   44.3385    7.3034 C.3     1  UNL1        0.0005
     22 C          10.4548   41.2416    5.8395 C.3     1  UNL1        0.1292
     23 C          10.5431   40.4397    4.5516 C.3     1  UNL1        0.0264
     24 C           9.4950   38.6292    3.1961 C.3     1  UNL1        0.0001
     25 C           9.4744   39.3620    4.5244 C.3     1  UNL1        0.0021
@<TRIPOS>BOND
     1    24    25    1
     2    25    23    1
     3    23    22    1
     4    22    11    1
     5     1    15    1
     6     1     2   ar
     7    18    14    1
     8    18    19    1
     9    19    20    1
    10    19    21    1
    11     3     4   ar
    12     5     6   ar
    13     7     8   ar
    14     9    13   ar
    15     9     4   ar
    16    10    11   ar
    17    10     2   ar
    18    11    12   ar
    19    15    14   am
    20     1    12   ar
    21    14    16    2
    22     2     3   ar
    23     4     5   ar
    24     6     7   ar
    25     8     9   ar
    26    10    13   ar
    27    15    17    1
@<TRIPOS>MOLECULE
MolPort-002-599-853 2448110 CSSS00121610367 LN00628686 MCULE-5995874023 PubChem-2043544 ZINC000002448110 ZINC02448110
 25 27 0 0 0
SMALL
GASTEIGER

@<TRIPOS>ATOM
      1 C          12.6158   39.6692    8.2253 C.ar    1  UNL1        0.1568
      2 C          13.3592   40.7360    7.7436 C.ar    1  UNL1        0.0689
      3 C          14.5805   41.3039    8.0921 C.ar    1  UNL1        0.0074
      4 C          14.9795   42.4462    7.3765 C.ar    1  UNL1        0.0179
      5 C          16.1993   43.0644    7.6592 C.ar    1  UNL1        0.0015
      6 C          16.5878   44.2018    6.9447 C.ar    1  UNL1        0.0001
      7 C          15.7594   44.7267    5.9467 C.ar    1  UNL1        0.0015
      8 C          14.5341   44.1193    5.6540 C.ar    1  UNL1        0.0192
      9 C          14.1319   42.9815    6.3575 C.ar    1  UNL1        0.0829
     10 C          12.5724   41.2850    6.7733 C.ar    1  UNL1        0.1621
     11 N          11.4180   40.6079    6.6806 N.ar    1  UNL1       -0.2329
     12 N          11.4297   39.6202    7.5699 N.ar    1  UNL1       -0.1527
     13 N          12.9305   42.3932    6.0772 N.ar    1  UNL1       -0.2268
     14 C          12.1686   37.6666    9.7421 C.2     1  UNL1        0.2272
     15 N          12.9429   38.7884    9.3070 N.am    1  UNL1       -0.2679
     16 O          10.9672   37.5321    9.3901 O.2     1  UNL1       -0.2747
     17 H          13.7774   38.9721    9.7960 H       1  UNL1        0.1563
     18 C          12.7653   36.6924   10.6999 C.3     1  UNL1        0.0854
     19 C          14.0909   37.2051   11.2399 C.3     1  UNL1        0.0091
     20 C          13.9479   38.6385   11.7166 C.3     1  UNL1        0.0005
     21 C          15.1318   37.1505   10.1421 C.3     1  UNL1        0.0005
     22 C          10.3180   40.8874    5.7710 C.3     1  UNL1        0.1292
     23 C          10.5780   40.2357    4.4229 C.3     1  UNL1        0.0264
     24 C          10.0936   38.0093    3.4117 C.3     1  UNL1        0.0001
     25 C           9.4970   39.2169    4.1100 C.3     1  UNL1        0.0021
@<TRIPOS>BOND
     1    24    25    1
     2    25    23    1
     3    23    22    1
     4    22    11    1
     5     1    15    1
     6     1     2   ar
     7    18    14    1
     8    18    19    1
     9    19    20    1
    10    19    21    1
    11     3     4   ar
    12     5     6   ar
    13     7     8   ar
    14     9    13   ar
    15     9     4   ar
    16    10    11   ar
    17    10     2   ar
    18    11    12   ar
    19    15    14   am
    20     1    12   ar
    21    14    16    2
    22     2     3   ar
    23     4     5   ar
    24     6     7   ar
    25     8     9   ar
    26    10    13   ar
    27    15    17    1
@<TRIPOS>MOLECULE
MolPort-002-599-853 2448110 CSSS00121610367 LN00628686 MCULE-5995874023 PubChem-2043544 ZINC000002448110 ZINC02448110
 25 27 0 0 0
SMALL
GASTEIGER

@<TRIPOS>ATOM
      1 C          12.6739   40.3373    7.9830 C.ar    1  UNL1        0.1568
      2 C          13.7634   41.1760    7.8031 C.ar    1  UNL1        0.0689
      3 C          14.0547   42.2137    6.9235 C.ar    1  UNL1        0.0074
      4 C          15.3287   42.7986    7.0273 C.ar    1  UNL1        0.0179
      5 C          15.6898   43.8549    6.1883 C.ar    1  UNL1        0.0015
      6 C          16.9600   44.4295    6.2962 C.ar    1  UNL1        0.0001
      7 C          17.8744   43.9506    7.2408 C.ar    1  UNL1        0.0015
      8 C          17.5275   42.8921    8.0864 C.ar    1  UNL1        0.0192
      9 C          16.2621   42.3080    7.9926 C.ar    1  UNL1        0.0829
     10 C          14.6867   40.7274    8.7020 C.ar    1  UNL1        0.1621
     11 N          14.1989   39.6740    9.3744 N.ar    1  UNL1       -0.2329
     12 N          12.9693   39.4209    8.9378 N.ar    1  UNL1       -0.1527
     13 N          15.9263   41.2679    8.8132 N.ar    1  UNL1       -0.2268
     14 C          10.1496   40.6349    7.7576 C.2     1  UNL1        0.2272
     15 N          11.4472   40.3206    7.2428 N.am    1  UNL1       -0.2679
     16 O           9.9351   40.6706    8.9978 O.2     1  UNL1       -0.2747
     17 H          11.5021   40.0697    6.2924 H       1  UNL1        0.1563
     18 C           9.0147   40.8323    6.8114 C.3     1  UNL1        0.0854
     19 C           8.4953   39.4976    6.3013 C.3     1  UNL1        0.0091
     20 C           9.0238   39.2239    4.9055 C.3     1  UNL1        0.0005
     21 C           6.9824   39.5337    6.2590 C.3     1  UNL1        0.0005
     22 C          14.8803   38.9140   10.4106 C.3     1  UNL1        0.1292
     23 C          13.8693   38.3601   11.4008 C.3     1  UNL1        0.0264
     24 C          12.5884   36.3298   10.7291 C.3     1  UNL1        0.0001
     25 C          13.8678   36.8425   11.3630 C.3     1  UNL1        0.0021
@<TRIPOS>BOND
     1    24    25    1
     2    25    23    1
     3    23    22    1
     4    22    11    1
     5     1    15    1
     6     1     2   ar
     7    18    14    1
     8    18    19    1
     9    19    20    1
    10    19    21    1
    11     3     4   ar
    12     5     6   ar
    13     7     8   ar
    14     9    13   ar
    15     9     4   ar
    16    10    11   ar
    17    10     2   ar
    18    11    12   ar
    19    15    14   am
    20     1    12   ar
    21    14    16    2
    22     2     3   ar
    23     4     5   ar
    24     6     7   ar
    25     8     9   ar
    26    10    13   ar
    27    15    17    1
@<TRIPOS>MOLECULE
MolPort-002-599-853 2448110 CSSS00121610367 LN00628686 MCULE-5995874023 PubChem-2043544 ZINC000002448110 ZINC02448110
 25 27 0 0 0
SMALL
GASTEIGER

@<TRIPOS>ATOM
      1 C          14.6400   40.8543    8.6606 C.ar    1  UNL1        0.1568
      2 C          13.4157   40.6759    8.0344 C.ar    1  UNL1        0.0689
      3 C          12.3740   39.7654    8.1810 C.ar    1  UNL1        0.0074
      4 C          11.2920   39.8864    7.2919 C.ar    1  UNL1        0.0179
      5 C          10.2025   39.0179    7.3855 C.ar    1  UNL1        0.0015
      6 C           9.1312   39.1431    6.4956 C.ar    1  UNL1        0.0001
      7 C           9.1447   40.1346    5.5084 C.ar    1  UNL1        0.0015
      8 C          10.2299   41.0102    5.4014 C.ar    1  UNL1        0.0192
      9 C          11.3073   40.8996    6.2835 C.ar    1  UNL1        0.0829
     10 C          13.3990   41.6209    7.0503 C.ar    1  UNL1        0.1621
     11 N          14.5447   42.3188    7.0643 N.ar    1  UNL1       -0.2329
     12 N          15.3160   41.8538    8.0418 N.ar    1  UNL1       -0.1527
     13 N          12.3717   41.7498    6.1733 N.ar    1  UNL1       -0.2268
     14 C          16.5978   39.9334   10.0133 C.2     1  UNL1        0.2272
     15 N          15.2039   40.0768    9.7238 N.am    1  UNL1       -0.2679
     16 O          17.4724   40.2505    9.1648 O.2     1  UNL1       -0.2747
     17 H          14.5742   39.5970   10.3091 H       1  UNL1        0.1563
     18 C          17.0178   39.3139   11.3026 C.3     1  UNL1        0.0854
     19 C          16.6726   37.8334   11.3308 C.3     1  UNL1        0.0091
     20 C          16.9937   37.1908    9.9943 C.3     1  UNL1        0.0005
     21 C          15.1947   37.6707   11.6155 C.3     1  UNL1        0.0005
     22 C          14.9104   43.4055    6.1694 C.3     1  UNL1        0.1292
     23 C          15.8584   44.3629    6.8724 C.3     1  UNL1        0.0264
     24 C          18.2097   43.9345    7.5807 C.3     1  UNL1        0.0001
     25 C          17.2832   44.1416    6.3974 C.3     1  UNL1        0.0021
@<TRIPOS>BOND
     1    24    25    1
     2    25    23    1
     3    23    22    1
     4    22    11    1
     5     1    15    1
     6     1     2   ar
     7    18    14    1
     8    18    19    1
     9    19    20    1
    10    19    21    1
    11     3     4   ar
    12     5     6   ar
    13     7     8   ar
    14     9    13   ar
    15     9     4   ar
    16    10    11   ar
    17    10     2   ar
    18    11    12   ar
    19    15    14   am
    20     1    12   ar
    21    14    16    2
    22     2     3   ar
    23     4     5   ar
    24     6     7   ar
    25     8     9   ar
    26    10    13   ar
    27    15    17    1
@<TRIPOS>MOLECULE
MolPort-002-599-853 2448110 CSSS00121610367 LN00628686 MCULE-5995874023 PubChem-2043544 ZINC000002448110 ZINC02448110
 25 27 0 0 0
SMALL
GASTEIGER

@<TRIPOS>ATOM
      1 C          14.1658   40.7096    8.6311 C.ar    1  UNL1        0.1568
      2 C          12.9638   40.4816    7.9784 C.ar    1  UNL1        0.0689
      3 C          11.9349   39.5581    8.1336 C.ar    1  UNL1        0.0074
      4 C          10.8774   39.6209    7.2097 C.ar    1  UNL1        0.0179
      5 C           9.8014   38.7362    7.3089 C.ar    1  UNL1        0.0015
      6 C           8.7546   38.8035    6.3844 C.ar    1  UNL1        0.0001
      7 C           8.7791   39.7529    5.3569 C.ar    1  UNL1        0.0015
      8 C           9.8510   40.6441    5.2438 C.ar    1  UNL1        0.0192
      9 C          10.9039   40.5912    6.1602 C.ar    1  UNL1        0.0829
     10 C          12.9589   41.3841    6.9550 C.ar    1  UNL1        0.1621
     11 N          14.0908   42.1039    6.9722 N.ar    1  UNL1       -0.2329
     12 N          14.8414   41.6951    7.9900 N.ar    1  UNL1       -0.1527
     13 N          11.9555   41.4564    6.0445 N.ar    1  UNL1       -0.2268
     14 C          14.0110   39.6217   10.9340 C.2     1  UNL1        0.2272
     15 N          14.7123   39.9882    9.7418 N.am    1  UNL1       -0.2679
     16 O          12.9166   40.1662   11.2361 O.2     1  UNL1       -0.2747
     17 H          15.6574   39.7200    9.6790 H       1  UNL1        0.1563
     18 C          14.6306   38.6482   11.8779 C.3     1  UNL1        0.0854
     19 C          14.5023   37.2271   11.3531 C.3     1  UNL1        0.0091
     20 C          15.4378   37.0118   10.1780 C.3     1  UNL1        0.0005
     21 C          13.0773   36.9884   10.9011 C.3     1  UNL1        0.0005
     22 C          14.4629   43.1591    6.0429 C.3     1  UNL1        0.1292
     23 C          15.4201   44.1305    6.7134 C.3     1  UNL1        0.0264
     24 C          17.8735   43.9705    7.1251 C.3     1  UNL1        0.0001
     25 C          16.7910   44.0555    6.0655 C.3     1  UNL1        0.0021
@<TRIPOS>BOND
     1    24    25    1
     2    25    23    1
     3    23    22    1
     4    22    11    1
     5     1    15    1
     6     1     2   ar
     7    18    14    1
     8    18    19    1
     9    19    20    1
    10    19    21    1
    11     3     4   ar
    12     5     6   ar
    13     7     8   ar
    14     9    13   ar
    15     9     4   ar
    16    10    11   ar
    17    10     2   ar
    18    11    12   ar
    19    15    14   am
    20     1    12   ar
    21    14    16    2
    22     2     3   ar
    23     4     5   ar
    24     6     7   ar
    25     8     9   ar
    26    10    13   ar
    27    15    17    1
