@<TRIPOS>MOLECULE
MolPort-046-061-713 MCULE-4990245677 PubChem-132448873
 27 30 0 0 0
SMALL
GASTEIGER

@<TRIPOS>ATOM
      1 C          10.6505   40.6717    5.2089 C.3     1  UNL1        0.1533
      2 C          13.4131   42.1860    6.8612 C.ar    1  UNL1        0.1526
      3 C          13.1477   41.1914    7.7773 C.ar    1  UNL1        0.0444
      4 C          12.0663   40.5276    7.2632 C.ar    1  UNL1        0.0577
      5 C          11.4316   39.3441    7.9241 C.3     1  UNL1        0.0667
      6 C          11.7397   39.3769    9.4287 C.3     1  UNL1        0.1000
      7 C          13.7405   40.9124    9.1213 C.3     1  UNL1        0.1241
      8 C          13.9457   38.8373   10.5269 C.2     1  UNL1        0.2304
      9 N          11.7370   41.0811    6.0811 N.ar    1  UNL1       -0.2519
     10 N          12.5474   42.0993    5.8251 N.ar    1  UNL1       -0.1546
     11 N          13.1603   39.6766    9.6661 N.am    1  UNL1       -0.2746
     12 O          15.1056   39.1912   10.8702 O.2     1  UNL1       -0.2745
     13 C          15.0492   43.8442    5.8694 C.2     1  UNL1        0.2267
     14 N          14.4578   43.1574    6.9750 N.am    1  UNL1       -0.2682
     15 O          14.5783   43.7106    4.7051 O.2     1  UNL1       -0.2747
     16 H          14.7922   43.3672    7.8769 H       1  UNL1        0.1563
     17 C          16.1924   44.7765    6.1203 C.3     1  UNL1        0.0769
     18 C          16.9877   44.2847    7.3178 C.3     1  UNL1        0.0096
     19 C          17.5257   44.0713    5.9201 C.3     1  UNL1        0.0096
     20 C          13.4020   37.5406   11.0406 C.3     1  UNL1        0.1138
     21 C          13.8768   36.3917   10.2107 C.ar    1  UNL1        0.0144
     22 C          13.1336   35.2017   10.1319 C.ar    1  UNL1        0.1366
     23 C          13.6063   34.1300    9.3661 C.ar    1  UNL1        0.0293
     24 C          14.8134   34.2446    8.6727 C.ar    1  UNL1        0.0023
     25 C          15.5501   35.4319    8.7420 C.ar    1  UNL1       -0.0002
     26 C          15.0826   36.5029    9.5099 C.ar    1  UNL1       -0.0016
     27 F          11.9644   35.0721   10.8019 F       1  UNL1       -0.2045
@<TRIPOS>BOND
     1     1     9    1
     2     2    14    1
     3     2     3   ar
     4    17    13    1
     5    17    18    1
     6    18    19    1
     7    19    17    1
     8     4     9   ar
     9     5     4    1
    10     5     6    1
    11     6    11    1
    12     7    11    1
    13     7     3    1
    14    20     8    1
    15    20    21    1
    16    22    27    1
    17    22    23   ar
    18    24    25   ar
    19    26    21   ar
    20     9    10   ar
    21    14    13   am
    22    11     8   am
    23     2    10   ar
    24    13    15    2
    25     3     4   ar
    26     8    12    2
    27    21    22   ar
    28    23    24   ar
    29    25    26   ar
    30    14    16    1
@<TRIPOS>MOLECULE
MolPort-046-061-713 MCULE-4990245677 PubChem-132448873
 27 30 0 0 0
SMALL
GASTEIGER

@<TRIPOS>ATOM
      1 C          13.1895   36.5352    5.4833 C.3     1  UNL1        0.1533
      2 C          10.9161   39.0790    6.4911 C.ar    1  UNL1        0.1526
      3 C          11.5939   38.9279    7.6814 C.ar    1  UNL1        0.0444
      4 C          12.5088   37.9396    7.4351 C.ar    1  UNL1        0.0577
      5 C          13.4885   37.4472    8.4537 C.3     1  UNL1        0.0667
      6 C          12.9456   37.7356    9.8615 C.3     1  UNL1        0.1000
      7 C          11.3617   39.5381    9.0265 C.3     1  UNL1        0.1241
      8 C          12.8464   39.9808   11.0073 C.2     1  UNL1        0.2304
      9 N          12.4003   37.5562    6.1492 N.ar    1  UNL1       -0.2519
     10 N          11.4273   38.2395    5.5615 N.ar    1  UNL1       -0.1546
     11 N          12.4211   39.1072    9.9499 N.am    1  UNL1       -0.2746
     12 O          12.2681   41.0862   11.1868 O.2     1  UNL1       -0.2745
     13 C           8.4899   39.7801    6.6708 C.2     1  UNL1        0.2267
     14 N           9.8426   39.9971    6.2620 N.am    1  UNL1       -0.2682
     15 O           8.1882   38.7846    7.3871 O.2     1  UNL1       -0.2747
     16 H          10.0498   40.8361    5.7903 H       1  UNL1        0.1563
     17 C           7.4469   40.7850    6.2948 C.3     1  UNL1        0.0769
     18 C           7.7031   42.0799    7.0472 C.3     1  UNL1        0.0096
     19 C           8.0692   41.9771    5.5830 C.3     1  UNL1        0.0096
     20 C          13.9686   39.5937   11.9193 C.3     1  UNL1        0.1138
     21 C          14.8345   38.5485   11.2930 C.ar    1  UNL1        0.0144
     22 C          14.6599   37.1880   11.5981 C.ar    1  UNL1        0.1366
     23 C          15.4950   36.2271   11.0171 C.ar    1  UNL1        0.0293
     24 C          16.4980   36.6182   10.1271 C.ar    1  UNL1        0.0023
     25 C          16.6673   37.9713    9.8146 C.ar    1  UNL1       -0.0002
     26 C          15.8373   38.9342   10.3969 C.ar    1  UNL1       -0.0016
     27 F          13.6962   36.7922   12.4627 F       1  UNL1       -0.2045
@<TRIPOS>BOND
     1     1     9    1
     2     2    14    1
     3     2     3   ar
     4    17    13    1
     5    17    18    1
     6    18    19    1
     7    19    17    1
     8     4     9   ar
     9     5     4    1
    10     5     6    1
    11     6    11    1
    12     7    11    1
    13     7     3    1
    14    20     8    1
    15    20    21    1
    16    22    27    1
    17    22    23   ar
    18    24    25   ar
    19    26    21   ar
    20     9    10   ar
    21    14    13   am
    22    11     8   am
    23     2    10   ar
    24    13    15    2
    25     3     4   ar
    26     8    12    2
    27    21    22   ar
    28    23    24   ar
    29    25    26   ar
    30    14    16    1
@<TRIPOS>MOLECULE
MolPort-046-061-713 MCULE-4990245677 PubChem-132448873
 27 30 0 0 0
SMALL
GASTEIGER

@<TRIPOS>ATOM
      1 C          13.6510   37.2312   10.2559 C.3     1  UNL1        0.1533
      2 C          14.6006   40.3868    8.9160 C.ar    1  UNL1        0.1526
      3 C          13.2859   40.6773    9.2098 C.ar    1  UNL1        0.0444
      4 C          12.7823   39.5139    9.7269 C.ar    1  UNL1        0.0577
      5 C          11.3722   39.3641   10.2057 C.3     1  UNL1        0.0667
      6 C          10.4861   40.4088    9.5106 C.3     1  UNL1        0.1000
      7 C          12.4636   41.8936    8.9276 C.3     1  UNL1        0.1241
      8 C          10.4126   42.8836    9.9942 C.2     1  UNL1        0.2304
      9 N          13.7655   38.5955    9.7717 N.ar    1  UNL1       -0.2519
     10 N          14.8808   39.1126    9.2741 N.ar    1  UNL1       -0.1546
     11 N          11.1290   41.7320    9.5221 N.am    1  UNL1       -0.2746
     12 O          10.8955   44.0373    9.8390 O.2     1  UNL1       -0.2745
     13 C          16.8928   41.4514    8.7663 C.2     1  UNL1        0.2267
     14 N          15.5385   41.2982    8.3348 N.am    1  UNL1       -0.2682
     15 O          17.3809   40.6754    9.6351 O.2     1  UNL1       -0.2747
     16 H          15.2298   41.8582    7.5863 H       1  UNL1        0.1563
     17 C          17.7453   42.5013    8.1259 C.3     1  UNL1        0.0769
     18 C          16.8602   43.4624    7.3505 C.3     1  UNL1        0.0096
     19 C          17.4291   43.8790    8.6889 C.3     1  UNL1        0.0096
     20 C           9.0817   42.7392   10.6640 C.3     1  UNL1        0.1138
     21 C           7.9656   42.8954    9.6821 C.ar    1  UNL1        0.0144
     22 C           7.5945   44.1644    9.2062 C.ar    1  UNL1        0.1366
     23 C           6.5329   44.2910    8.3032 C.ar    1  UNL1        0.0293
     24 C           5.8459   43.1555    7.8677 C.ar    1  UNL1        0.0023
     25 C           6.2199   41.8902    8.3329 C.ar    1  UNL1       -0.0002
     26 C           7.2774   41.7609    9.2385 C.ar    1  UNL1       -0.0016
     27 F           8.2463   45.2758    9.6221 F       1  UNL1       -0.2045
@<TRIPOS>BOND
     1     1     9    1
     2     2    14    1
     3     2     3   ar
     4    17    13    1
     5    17    18    1
     6    18    19    1
     7    19    17    1
     8     4     9   ar
     9     5     4    1
    10     5     6    1
    11     6    11    1
    12     7    11    1
    13     7     3    1
    14    20     8    1
    15    20    21    1
    16    22    27    1
    17    22    23   ar
    18    24    25   ar
    19    26    21   ar
    20     9    10   ar
    21    14    13   am
    22    11     8   am
    23     2    10   ar
    24    13    15    2
    25     3     4   ar
    26     8    12    2
    27    21    22   ar
    28    23    24   ar
    29    25    26   ar
    30    14    16    1
@<TRIPOS>MOLECULE
MolPort-046-061-713 MCULE-4990245677 PubChem-132448873
 27 30 0 0 0
SMALL
GASTEIGER

@<TRIPOS>ATOM
      1 C          11.0155   40.2232    8.8891 C.3     1  UNL1        0.1533
      2 C          14.5617   40.4524    9.0528 C.ar    1  UNL1        0.1526
      3 C          14.4416   39.0824    9.1416 C.ar    1  UNL1        0.0444
      4 C          13.0925   38.8512    9.1100 C.ar    1  UNL1        0.0577
      5 C          12.4864   37.4838    9.1657 C.3     1  UNL1        0.0667
      6 C          13.4727   36.5182    9.8399 C.3     1  UNL1        0.1000
      7 C          15.4681   38.0211    9.3762 C.3     1  UNL1        0.1241
      8 C          15.5805   35.5689    8.8299 C.2     1  UNL1        0.2304
      9 N          12.4521   40.0268    8.9690 N.ar    1  UNL1       -0.2519
     10 N          13.3365   41.0147    8.9386 N.ar    1  UNL1       -0.1546
     11 N          14.8311   36.6983    9.3044 N.am    1  UNL1       -0.2746
     12 O          16.8004   35.6952    8.5394 O.2     1  UNL1       -0.2745
     13 C          16.2055   42.0928    8.0443 C.2     1  UNL1        0.2267
     14 N          15.7962   41.1762    9.0622 N.am    1  UNL1       -0.2682
     15 O          15.4146   42.4116    7.1125 O.2     1  UNL1       -0.2747
     16 H          16.4057   41.0330    9.8220 H       1  UNL1        0.1563
     17 C          17.5602   42.7217    8.1345 C.3     1  UNL1        0.0769
     18 C          17.5563   44.0343    7.3692 C.3     1  UNL1        0.0096
     19 C          17.4983   44.0463    8.8808 C.3     1  UNL1        0.0096
     20 C          14.9361   34.2257    8.6838 C.3     1  UNL1        0.1138
     21 C          15.8538   33.2596    8.0066 C.ar    1  UNL1        0.0144
     22 C          16.1508   33.3830    6.6386 C.ar    1  UNL1        0.1366
     23 C          16.9957   32.4555    6.0188 C.ar    1  UNL1        0.0293
     24 C          17.5514   31.4106    6.7607 C.ar    1  UNL1        0.0023
     25 C          17.2648   31.2916    8.1248 C.ar    1  UNL1       -0.0002
     26 C          16.4173   32.2141    8.7461 C.ar    1  UNL1       -0.0016
     27 F          15.6165   34.3867    5.9037 F       1  UNL1       -0.2045
@<TRIPOS>BOND
     1     1     9    1
     2     2    14    1
     3     2     3   ar
     4    17    13    1
     5    17    18    1
     6    18    19    1
     7    19    17    1
     8     4     9   ar
     9     5     4    1
    10     5     6    1
    11     6    11    1
    12     7    11    1
    13     7     3    1
    14    20     8    1
    15    20    21    1
    16    22    27    1
    17    22    23   ar
    18    24    25   ar
    19    26    21   ar
    20     9    10   ar
    21    14    13   am
    22    11     8   am
    23     2    10   ar
    24    13    15    2
    25     3     4   ar
    26     8    12    2
    27    21    22   ar
    28    23    24   ar
    29    25    26   ar
    30    14    16    1
@<TRIPOS>MOLECULE
MolPort-046-061-713 MCULE-4990245677 PubChem-132448873
 27 30 0 0 0
SMALL
GASTEIGER

@<TRIPOS>ATOM
      1 C          15.3273   38.8374   10.8534 C.3     1  UNL1        0.1533
      2 C          14.5283   41.2328    8.3477 C.ar    1  UNL1        0.1526
      3 C          13.3112   41.1991    8.9932 C.ar    1  UNL1        0.0444
      4 C          13.4758   40.2785    9.9931 C.ar    1  UNL1        0.0577
      5 C          12.4023   39.9212   10.9730 C.3     1  UNL1        0.0667
      6 C          11.0295   40.2351   10.3593 C.3     1  UNL1        0.1000
      7 C          12.0087   41.8558    8.6652 C.3     1  UNL1        0.1241
      8 C          10.0095   42.5200   10.0386 C.2     1  UNL1        0.2304
      9 N          14.7419   39.8223    9.9613 N.ar    1  UNL1       -0.2519
     10 N          15.3953   40.3921    8.9575 N.ar    1  UNL1       -0.1546
     11 N          11.0312   41.5615    9.7228 N.am    1  UNL1       -0.2746
     12 O           9.9076   43.5815    9.3668 O.2     1  UNL1       -0.2745
     13 C          15.8296   43.0774    7.2015 C.2     1  UNL1        0.2267
     14 N          14.8395   42.0463    7.2122 N.am    1  UNL1       -0.2682
     15 O          16.5903   43.2466    8.1955 O.2     1  UNL1       -0.2747
     16 H          14.3371   41.8846    6.3811 H       1  UNL1        0.1563
     17 C          15.9979   43.9107    5.9701 C.3     1  UNL1        0.0769
     18 C          14.7240   43.8493    5.1444 C.3     1  UNL1        0.0096
     19 C          15.0269   45.0821    5.9670 C.3     1  UNL1        0.0096
     20 C           9.0439   42.2739   11.1556 C.3     1  UNL1        0.1138
     21 C           7.7159   41.8316   10.6311 C.ar    1  UNL1        0.0144
     22 C           7.5320   41.5642    9.2638 C.ar    1  UNL1        0.1366
     23 C           6.2752   41.1716    8.7897 C.ar    1  UNL1        0.0293
     24 C           5.2040   41.0373    9.6760 C.ar    1  UNL1        0.0023
     25 C           5.3873   41.2937   11.0390 C.ar    1  UNL1       -0.0002
     26 C           6.6408   41.6904   11.5151 C.ar    1  UNL1       -0.0016
     27 F           8.5582   41.6946    8.3904 F       1  UNL1       -0.2045
@<TRIPOS>BOND
     1     1     9    1
     2     2    14    1
     3     2     3   ar
     4    17    13    1
     5    17    18    1
     6    18    19    1
     7    19    17    1
     8     4     9   ar
     9     5     4    1
    10     5     6    1
    11     6    11    1
    12     7    11    1
    13     7     3    1
    14    20     8    1
    15    20    21    1
    16    22    27    1
    17    22    23   ar
    18    24    25   ar
    19    26    21   ar
    20     9    10   ar
    21    14    13   am
    22    11     8   am
    23     2    10   ar
    24    13    15    2
    25     3     4   ar
    26     8    12    2
    27    21    22   ar
    28    23    24   ar
    29    25    26   ar
    30    14    16    1
@<TRIPOS>MOLECULE
MolPort-046-061-713 MCULE-4990245677 PubChem-132448873
 27 30 0 0 0
SMALL
GASTEIGER

@<TRIPOS>ATOM
      1 C           8.7541   37.9445    6.5218 C.3     1  UNL1        0.1533
      2 C           8.4415   41.2029    7.9145 C.ar    1  UNL1        0.1526
      3 C           9.7979   41.2143    7.6715 C.ar    1  UNL1        0.0444
      4 C          10.0640   39.9809    7.1400 C.ar    1  UNL1        0.0577
      5 C          11.4278   39.5453    6.7035 C.3     1  UNL1        0.0667
      6 C          12.4875   40.3652    7.4549 C.3     1  UNL1        0.1000
      7 C          10.8470   42.2233    8.0129 C.3     1  UNL1        0.1241
      8 C          13.0991   42.7773    7.0406 C.2     1  UNL1        0.2304
      9 N           8.9117   39.2924    7.0385 N.ar    1  UNL1       -0.2519
     10 N           7.9126   40.0241    7.5133 N.ar    1  UNL1       -0.1546
     11 N          12.1389   41.7945    7.4581 N.am    1  UNL1       -0.2746
     12 O          12.8648   44.0039    7.2110 O.2     1  UNL1       -0.2745
     13 C           6.9058   43.2083    7.7412 C.2     1  UNL1        0.2267
     14 N           7.6957   42.2807    8.4891 N.am    1  UNL1       -0.2682
     15 O           6.7241   43.0432    6.5023 O.2     1  UNL1       -0.2747
     16 H           7.7288   42.3909    9.4669 H       1  UNL1        0.1563
     17 C           6.2413   44.3410    8.4585 C.3     1  UNL1        0.0769
     18 C           5.0052   44.7685    7.6855 C.3     1  UNL1        0.0096
     19 C           4.8555   43.9417    8.9434 C.3     1  UNL1        0.0096
     20 C          14.3938   42.3676    6.4109 C.3     1  UNL1        0.1138
     21 C          15.5507   42.6901    7.3007 C.ar    1  UNL1        0.0144
     22 C          16.2534   43.8991    7.1622 C.ar    1  UNL1        0.1366
     23 C          17.3470   44.1726    7.9915 C.ar    1  UNL1        0.0293
     24 C          17.7364   43.2479    8.9633 C.ar    1  UNL1        0.0023
     25 C          17.0321   42.0480    9.1093 C.ar    1  UNL1       -0.0002
     26 C          15.9418   41.7699    8.2793 C.ar    1  UNL1       -0.0016
     27 F          15.8926   44.8039    6.2219 F       1  UNL1       -0.2045
@<TRIPOS>BOND
     1     1     9    1
     2     2    14    1
     3     2     3   ar
     4    17    13    1
     5    17    18    1
     6    18    19    1
     7    19    17    1
     8     4     9   ar
     9     5     4    1
    10     5     6    1
    11     6    11    1
    12     7    11    1
    13     7     3    1
    14    20     8    1
    15    20    21    1
    16    22    27    1
    17    22    23   ar
    18    24    25   ar
    19    26    21   ar
    20     9    10   ar
    21    14    13   am
    22    11     8   am
    23     2    10   ar
    24    13    15    2
    25     3     4   ar
    26     8    12    2
    27    21    22   ar
    28    23    24   ar
    29    25    26   ar
    30    14    16    1
@<TRIPOS>MOLECULE
MolPort-046-061-713 MCULE-4990245677 PubChem-132448873
 27 30 0 0 0
SMALL
GASTEIGER

@<TRIPOS>ATOM
      1 C           9.5358   41.1100   14.2337 C.3     1  UNL1        0.1533
      2 C           7.5970   41.9092   11.3602 C.ar    1  UNL1        0.1526
      3 C           8.7525   41.5124   10.7227 C.ar    1  UNL1        0.0444
      4 C           9.6130   41.1884   11.7371 C.ar    1  UNL1        0.0577
      5 C          11.0039   40.6836   11.5121 C.3     1  UNL1        0.0667
      6 C          11.4940   41.1439   10.1309 C.3     1  UNL1        0.1000
      7 C           9.1338   41.5390    9.2773 C.3     1  UNL1        0.1241
      8 C          10.7735   40.2268    7.8940 C.2     1  UNL1        0.2304
      9 N           8.9794   41.3493   12.9140 N.ar    1  UNL1       -0.2519
     10 N           7.7487   41.7949   12.6997 N.ar    1  UNL1       -0.1546
     11 N          10.4590   40.9258    9.1083 N.am    1  UNL1       -0.2746
     12 O           9.9418   40.1958    6.9475 O.2     1  UNL1       -0.2745
     13 C           5.1849   41.6179   10.6482 C.2     1  UNL1        0.2267
     14 N           6.4057   42.3595   10.7075 N.am    1  UNL1       -0.2682
     15 O           5.0562   40.5414   11.2962 O.2     1  UNL1       -0.2747
     16 H           6.4284   43.2406   10.2690 H       1  UNL1        0.1563
     17 C           4.0375   42.1685    9.8613 C.3     1  UNL1        0.0769
     18 C           3.0140   41.0697    9.6303 C.3     1  UNL1        0.0096
     19 C           2.7516   42.1328   10.6739 C.3     1  UNL1        0.0096
     20 C          12.0909   39.5366    7.7239 C.3     1  UNL1        0.1138
     21 C          12.3042   38.5137    8.7927 C.ar    1  UNL1        0.0144
     22 C          11.2837   37.6146    9.1460 C.ar    1  UNL1        0.1366
     23 C          11.4967   36.6783   10.1641 C.ar    1  UNL1        0.0293
     24 C          12.7264   36.6308   10.8247 C.ar    1  UNL1        0.0023
     25 C          13.7470   37.5185   10.4678 C.ar    1  UNL1       -0.0002
     26 C          13.5359   38.4582    9.4541 C.ar    1  UNL1       -0.0016
     27 F          10.0841   37.6505    8.5195 F       1  UNL1       -0.2045
@<TRIPOS>BOND
     1     1     9    1
     2     2    14    1
     3     2     3   ar
     4    17    13    1
     5    17    18    1
     6    18    19    1
     7    19    17    1
     8     4     9   ar
     9     5     4    1
    10     5     6    1
    11     6    11    1
    12     7    11    1
    13     7     3    1
    14    20     8    1
    15    20    21    1
    16    22    27    1
    17    22    23   ar
    18    24    25   ar
    19    26    21   ar
    20     9    10   ar
    21    14    13   am
    22    11     8   am
    23     2    10   ar
    24    13    15    2
    25     3     4   ar
    26     8    12    2
    27    21    22   ar
    28    23    24   ar
    29    25    26   ar
    30    14    16    1
@<TRIPOS>MOLECULE
MolPort-046-061-713 MCULE-4990245677 PubChem-132448873
 27 30 0 0 0
SMALL
GASTEIGER

@<TRIPOS>ATOM
      1 C          15.9754   38.1202   10.4968 C.3     1  UNL1        0.1533
      2 C          15.7571   41.2179    8.7615 C.ar    1  UNL1        0.1526
      3 C          14.4353   40.8392    8.6697 C.ar    1  UNL1        0.0444
      4 C          14.3802   39.6227    9.2955 C.ar    1  UNL1        0.0577
      5 C          13.1205   38.8299    9.4527 C.3     1  UNL1        0.0667
      6 C          12.1223   39.2405    8.3596 C.3     1  UNL1        0.1000
      7 C          13.2848   41.4614    7.9455 C.3     1  UNL1        0.1241
      8 C          10.7913   41.3813    8.2618 C.2     1  UNL1        0.2304
      9 N          15.6040   39.3198    9.7676 N.ar    1  UNL1       -0.2519
     10 N          16.4569   40.2824    9.4437 N.ar    1  UNL1       -0.1546
     11 N          12.0577   40.7048    8.2324 N.am    1  UNL1       -0.2746
     12 O          10.7212   42.6068    7.9762 O.2     1  UNL1       -0.2745
     13 C          15.8686   43.0586    7.0268 C.2     1  UNL1        0.2267
     14 N          16.3092   42.4271    8.2312 N.am    1  UNL1       -0.2682
     15 O          14.8520   42.6294    6.4123 O.2     1  UNL1       -0.2747
     16 H          17.0430   42.8533    8.7303 H       1  UNL1        0.1563
     17 C          16.5882   44.2768    6.5396 C.3     1  UNL1        0.0769
     18 C          18.0312   44.2302    7.0128 C.3     1  UNL1        0.0096
     19 C          17.7021   43.9026    5.5731 C.3     1  UNL1        0.0096
     20 C           9.5361   40.6472    8.6173 C.3     1  UNL1        0.1138
     21 C           9.0914   40.9823   10.0044 C.ar    1  UNL1        0.0144
     22 C           7.7754   41.4045   10.2588 C.ar    1  UNL1        0.1366
     23 C           7.3850   41.7339   11.5617 C.ar    1  UNL1        0.0293
     24 C           8.3005   41.6358   12.6121 C.ar    1  UNL1        0.0023
     25 C           9.6083   41.2064   12.3625 C.ar    1  UNL1       -0.0002
     26 C          10.0027   40.8808   11.0611 C.ar    1  UNL1       -0.0016
     27 F           6.8771   41.5103    9.2515 F       1  UNL1       -0.2045
@<TRIPOS>BOND
     1     1     9    1
     2     2    14    1
     3     2     3   ar
     4    17    13    1
     5    17    18    1
     6    18    19    1
     7    19    17    1
     8     4     9   ar
     9     5     4    1
    10     5     6    1
    11     6    11    1
    12     7    11    1
    13     7     3    1
    14    20     8    1
    15    20    21    1
    16    22    27    1
    17    22    23   ar
    18    24    25   ar
    19    26    21   ar
    20     9    10   ar
    21    14    13   am
    22    11     8   am
    23     2    10   ar
    24    13    15    2
    25     3     4   ar
    26     8    12    2
    27    21    22   ar
    28    23    24   ar
    29    25    26   ar
    30    14    16    1
@<TRIPOS>MOLECULE
MolPort-046-061-713 MCULE-4990245677 PubChem-132448873
 27 30 0 0 0
SMALL
GASTEIGER

@<TRIPOS>ATOM
      1 C          12.8728   36.6327    9.0018 C.3     1  UNL1        0.1533
      2 C          14.3720   39.8480    9.2646 C.ar    1  UNL1        0.1526
      3 C          13.0505   40.2334    9.3286 C.ar    1  UNL1        0.0444
      4 C          12.3443   39.0658    9.2160 C.ar    1  UNL1        0.0577
      5 C          10.8496   38.9969    9.2503 C.3     1  UNL1        0.0667
      6 C          10.2687   40.3554    8.8297 C.3     1  UNL1        0.1000
      7 C          12.4251   41.5911    9.3575 C.3     1  UNL1        0.1241
      8 C          10.2269   42.4679   10.2080 C.2     1  UNL1        0.2304
      9 N          13.2108   38.0392    9.1301 N.ar    1  UNL1       -0.2519
     10 N          14.4534   38.5023    9.1526 N.ar    1  UNL1       -0.1546
     11 N          10.9690   41.4572    9.5080 N.am    1  UNL1       -0.2746
     12 O          10.8100   43.5008   10.6339 O.2     1  UNL1       -0.2745
     13 C          15.8527   41.6585    8.2952 C.2     1  UNL1        0.2267
     14 N          15.4949   40.7332    9.3246 N.am    1  UNL1       -0.2682
     15 O          15.0977   41.8316    7.2976 O.2     1  UNL1       -0.2747
     16 H          16.0600   40.7028   10.1302 H       1  UNL1        0.1563
     17 C          17.1011   42.4692    8.4484 C.3     1  UNL1        0.0769
     18 C          17.2967   43.3284    7.2108 C.3     1  UNL1        0.0096
     19 C          16.7843   43.9568    8.4878 C.3     1  UNL1        0.0096
     20 C           8.7542   42.3223   10.4331 C.3     1  UNL1        0.1138
     21 C           7.9869   42.6247    9.1864 C.ar    1  UNL1        0.0144
     22 C           7.8137   43.9486    8.7481 C.ar    1  UNL1        0.1366
     23 C           7.0739   44.2117    7.5897 C.ar    1  UNL1        0.0293
     24 C           6.5136   43.1585    6.8633 C.ar    1  UNL1        0.0023
     25 C           6.6930   41.8392    7.2926 C.ar    1  UNL1       -0.0002
     26 C           7.4279   41.5732    8.4520 C.ar    1  UNL1       -0.0016
     27 F           8.3455   44.9814    9.4433 F       1  UNL1       -0.2045
@<TRIPOS>BOND
     1     1     9    1
     2     2    14    1
     3     2     3   ar
     4    17    13    1
     5    17    18    1
     6    18    19    1
     7    19    17    1
     8     4     9   ar
     9     5     4    1
    10     5     6    1
    11     6    11    1
    12     7    11    1
    13     7     3    1
    14    20     8    1
    15    20    21    1
    16    22    27    1
    17    22    23   ar
    18    24    25   ar
    19    26    21   ar
    20     9    10   ar
    21    14    13   am
    22    11     8   am
    23     2    10   ar
    24    13    15    2
    25     3     4   ar
    26     8    12    2
    27    21    22   ar
    28    23    24   ar
    29    25    26   ar
    30    14    16    1
@<TRIPOS>MOLECULE
MolPort-046-061-713 MCULE-4990245677 PubChem-132448873
 27 30 0 0 0
SMALL
GASTEIGER

@<TRIPOS>ATOM
      1 C           9.1973   38.7502    3.6805 C.3     1  UNL1        0.1533
      2 C           8.1309   40.9015    6.3053 C.ar    1  UNL1        0.1526
      3 C           9.4438   40.7422    6.6928 C.ar    1  UNL1        0.0444
      4 C           9.9803   39.8988    5.7572 C.ar    1  UNL1        0.0577
      5 C          11.4091   39.4533    5.7681 C.3     1  UNL1        0.0667
      6 C          11.9631   39.5586    7.1970 C.3     1  UNL1        0.1000
      7 C          10.1697   41.2097    7.9134 C.3     1  UNL1        0.1241
      8 C          12.5889   41.6756    8.4180 C.2     1  UNL1        0.2304
      9 N           9.0377   39.6083    4.8411 N.ar    1  UNL1       -0.2519
     10 N           7.9008   40.2091    5.1661 N.ar    1  UNL1       -0.1546
     11 N          11.5893   40.8425    7.8104 N.am    1  UNL1       -0.2746
     12 O          12.2480   42.6822    9.0955 O.2     1  UNL1       -0.2745
     13 C           6.7601   43.0097    6.5992 C.2     1  UNL1        0.2267
     14 N           7.1567   41.6936    6.9920 N.am    1  UNL1       -0.2682
     15 O           7.1779   43.5093    5.5171 O.2     1  UNL1       -0.2747
     16 H           6.7303   41.3053    7.7899 H       1  UNL1        0.1563
     17 C           5.7897   43.7620    7.4545 C.3     1  UNL1        0.0769
     18 C           5.7937   43.1733    8.8551 C.3     1  UNL1        0.0096
     19 C           6.5053   44.4813    8.5883 C.3     1  UNL1        0.0096
     20 C          14.0448   41.3605    8.2707 C.3     1  UNL1        0.1138
     21 C          14.7192   42.3428    7.3680 C.ar    1  UNL1        0.0144
     22 C          16.0134   42.8121    7.6496 C.ar    1  UNL1        0.1366
     23 C          16.6187   43.7478    6.8030 C.ar    1  UNL1        0.0293
     24 C          15.9405   44.2102    5.6729 C.ar    1  UNL1        0.0023
     25 C          14.6558   43.7369    5.3855 C.ar    1  UNL1       -0.0002
     26 C          14.0466   42.8054    6.2318 C.ar    1  UNL1       -0.0016
     27 F          16.6827   42.3784    8.7436 F       1  UNL1       -0.2045
@<TRIPOS>BOND
     1     1     9    1
     2     2    14    1
     3     2     3   ar
     4    17    13    1
     5    17    18    1
     6    18    19    1
     7    19    17    1
     8     4     9   ar
     9     5     4    1
    10     5     6    1
    11     6    11    1
    12     7    11    1
    13     7     3    1
    14    20     8    1
    15    20    21    1
    16    22    27    1
    17    22    23   ar
    18    24    25   ar
    19    26    21   ar
    20     9    10   ar
    21    14    13   am
    22    11     8   am
    23     2    10   ar
    24    13    15    2
    25     3     4   ar
    26     8    12    2
    27    21    22   ar
    28    23    24   ar
    29    25    26   ar
    30    14    16    1
