@<TRIPOS>MOLECULE
MolPort-007-723-467 6818306 ChemDiv-E157-5727 MCULE-9072842945 PubChem-22518023 ZINC000006818306 ZINC06818306
 25 26 0 0 0
SMALL
GASTEIGER

@<TRIPOS>ATOM
      1 O          12.6874   39.1786    8.2709 O.2     1  UNL1       -0.1477
      2 O          13.5783   40.7376    9.9382 O.2     1  UNL1       -0.1477
      3 S          12.7011   40.6114    8.7245 S.O2    1  UNL1        0.1010
      4 C           8.7485   41.3862    9.5964 C.ar    1  UNL1        0.1893
      5 C          11.0779   41.1127    9.1520 C.ar    1  UNL1        0.2593
      6 N           9.4926   42.4332   10.0170 N.ar    1  UNL1       -0.1239
      7 N          10.7919   42.2790    9.7703 N.ar    1  UNL1       -0.1187
      8 S           9.6935   40.1922    8.8810 S.2     1  UNL1       -0.0102
      9 C           6.6200   41.4241   10.9791 C.2     1  UNL1        0.2276
     10 O           7.2353   41.6111   12.0622 O.2     1  UNL1       -0.2747
     11 N           7.3280   41.2974    9.7408 N.am    1  UNL1       -0.2627
     12 H           6.7970   41.1370    8.9274 H       1  UNL1        0.1568
     13 C           5.1321   41.3188   10.9935 C.3     1  UNL1        0.0854
     14 C           3.3521   42.0638    9.4097 C.3     1  UNL1        0.0005
     15 C           4.5782   41.1869    9.5834 C.3     1  UNL1        0.0096
     16 N          13.2971   41.6170    7.4362 N.pl3   1  UNL1       -0.1891
     17 C          14.6265   42.1632    7.5099 C.ar    1  UNL1        0.0649
     18 C          14.9957   43.3229    6.7903 C.ar    1  UNL1       -0.0070
     19 C          14.0490   44.0208    5.8759 C.3     1  UNL1        0.0324
     20 C          16.3004   43.8175    6.8865 C.ar    1  UNL1       -0.0030
     21 C          17.2443   43.1738    7.6888 C.ar    1  UNL1       -0.0002
     22 C          16.8900   42.0246    8.3960 C.ar    1  UNL1        0.0013
     23 C          15.5905   41.5226    8.3046 C.ar    1  UNL1        0.0158
     24 C          12.3566   42.1343    6.4483 C.3     1  UNL1        0.1160
     25 C          11.7750   41.0021    5.6210 C.3     1  UNL1        0.0252
@<TRIPOS>BOND
     1    14    15    1
     2    15    13    1
     3    13     9    1
     4     9    11   am
     5     4     8   ar
     6     5     8   ar
     7    24    16    1
     8    24    25    1
     9    18    20   ar
    10    19    18    1
    11    21    22   ar
    12    23    17   ar
    13    11     4    1
    14     6     7   ar
    15    16    17    1
    16     3     5    1
    17     3    16    1
    18     9    10    2
    19     4     6   ar
    20     5     7   ar
    21    17    18   ar
    22    20    21   ar
    23    22    23   ar
    24     3     1    2
    25     3     2    2
    26    11    12    1
@<TRIPOS>MOLECULE
MolPort-007-723-467 6818306 ChemDiv-E157-5727 MCULE-9072842945 PubChem-22518023 ZINC000006818306 ZINC06818306
 25 26 0 0 0
SMALL
GASTEIGER

@<TRIPOS>ATOM
      1 O          12.1209   40.3167   11.3744 O.2     1  UNL1       -0.1477
      2 O          12.0666   41.6804    9.3394 O.2     1  UNL1       -0.1477
      3 S          11.3596   40.6012   10.1102 S.O2    1  UNL1        0.1010
      4 C           7.5086   41.9853   10.5975 C.ar    1  UNL1        0.1893
      5 C           9.7461   41.1588   10.5032 C.ar    1  UNL1        0.2593
      6 N           7.9592   41.5440   11.7930 N.ar    1  UNL1       -0.1239
      7 N           9.2066   41.0817   11.7390 N.ar    1  UNL1       -0.1187
      8 S           8.6676   41.8176    9.3896 S.2     1  UNL1       -0.0102
      9 C           5.2213   41.9745    9.4967 C.2     1  UNL1        0.2276
     10 O           5.4670   40.9413    8.8193 O.2     1  UNL1       -0.2747
     11 N           6.2036   42.5291   10.3788 N.am    1  UNL1       -0.2627
     12 H           5.9626   43.3464   10.8721 H       1  UNL1        0.1568
     13 C           3.8907   42.6356    9.3634 C.3     1  UNL1        0.0854
     14 C           2.9557   41.9910   11.5865 C.3     1  UNL1        0.0005
     15 C           2.8105   41.8436   10.0833 C.3     1  UNL1        0.0096
     16 N          11.2543   39.1463    9.1623 N.pl3   1  UNL1       -0.1891
     17 C          11.9893   37.9755    9.5625 C.ar    1  UNL1        0.0649
     18 C          13.3927   37.8905    9.4131 C.ar    1  UNL1       -0.0070
     19 C          14.1890   38.9841    8.7890 C.3     1  UNL1        0.0324
     20 C          14.0675   36.7317    9.8106 C.ar    1  UNL1       -0.0030
     21 C          13.3652   35.6548   10.3548 C.ar    1  UNL1       -0.0002
     22 C          11.9794   35.7279   10.4985 C.ar    1  UNL1        0.0013
     23 C          11.2972   36.8799   10.1028 C.ar    1  UNL1        0.0158
     24 C          10.6678   39.2107    7.8282 C.3     1  UNL1        0.1160
     25 C          11.6556   39.8028    6.8390 C.3     1  UNL1        0.0252
@<TRIPOS>BOND
     1    14    15    1
     2    15    13    1
     3    13     9    1
     4     9    11   am
     5     4     8   ar
     6     5     8   ar
     7    24    16    1
     8    24    25    1
     9    18    20   ar
    10    19    18    1
    11    21    22   ar
    12    23    17   ar
    13    11     4    1
    14     6     7   ar
    15    16    17    1
    16     3     5    1
    17     3    16    1
    18     9    10    2
    19     4     6   ar
    20     5     7   ar
    21    17    18   ar
    22    20    21   ar
    23    22    23   ar
    24     3     1    2
    25     3     2    2
    26    11    12    1
@<TRIPOS>MOLECULE
MolPort-007-723-467 6818306 ChemDiv-E157-5727 MCULE-9072842945 PubChem-22518023 ZINC000006818306 ZINC06818306
 25 26 0 0 0
SMALL
GASTEIGER

@<TRIPOS>ATOM
      1 O           6.6189   40.5340    7.1472 O.2     1  UNL1       -0.1477
      2 O           6.5934   42.4254    5.5896 O.2     1  UNL1       -0.1477
      3 S           7.2035   41.8870    6.8531 S.O2    1  UNL1        0.1010
      4 C          11.3124   41.5850    6.7582 C.ar    1  UNL1        0.1893
      5 C           8.9346   41.7471    6.6239 C.ar    1  UNL1        0.2593
      6 N          10.8416   41.4113    5.5032 N.ar    1  UNL1       -0.1239
      7 N           9.5151   41.5001    5.4296 N.ar    1  UNL1       -0.1187
      8 S          10.0724   41.8641    7.8604 S.2     1  UNL1       -0.0102
      9 C          13.6503   42.5705    6.8404 C.2     1  UNL1        0.2276
     10 O          13.3132   43.6191    6.2294 O.2     1  UNL1       -0.2747
     11 N          12.6974   41.5369    7.1132 N.am    1  UNL1       -0.2627
     12 H          13.0198   40.7325    7.5804 H       1  UNL1        0.1568
     13 C          15.0683   42.4004    7.2712 C.3     1  UNL1        0.0854
     14 C          17.3335   43.4478    7.3299 C.3     1  UNL1        0.0005
     15 C          15.8549   43.6890    7.0892 C.3     1  UNL1        0.0096
     16 N           6.8808   42.9554    8.1875 N.pl3   1  UNL1       -0.1891
     17 C           6.0521   42.5112    9.2770 C.ar    1  UNL1        0.0649
     18 C           4.7077   42.9288    9.4078 C.ar    1  UNL1       -0.0070
     19 C           4.0822   43.8901    8.4569 C.3     1  UNL1        0.0324
     20 C           3.9387   42.4769   10.4852 C.ar    1  UNL1       -0.0030
     21 C           4.4889   41.6149   11.4355 C.ar    1  UNL1       -0.0002
     22 C           5.8170   41.2043   11.3177 C.ar    1  UNL1        0.0013
     23 C           6.5927   41.6518   10.2467 C.ar    1  UNL1        0.0158
     24 C           7.2021   44.3721    8.0545 C.3     1  UNL1        0.1160
     25 C           8.0427   44.8413    9.2284 C.3     1  UNL1        0.0252
@<TRIPOS>BOND
     1    14    15    1
     2    15    13    1
     3    13     9    1
     4     9    11   am
     5     4     8   ar
     6     5     8   ar
     7    24    16    1
     8    24    25    1
     9    18    20   ar
    10    19    18    1
    11    21    22   ar
    12    23    17   ar
    13    11     4    1
    14     6     7   ar
    15    16    17    1
    16     3     5    1
    17     3    16    1
    18     9    10    2
    19     4     6   ar
    20     5     7   ar
    21    17    18   ar
    22    20    21   ar
    23    22    23   ar
    24     3     1    2
    25     3     2    2
    26    11    12    1
@<TRIPOS>MOLECULE
MolPort-007-723-467 6818306 ChemDiv-E157-5727 MCULE-9072842945 PubChem-22518023 ZINC000006818306 ZINC06818306
 25 26 0 0 0
SMALL
GASTEIGER

@<TRIPOS>ATOM
      1 O           7.1777   39.5951    6.7753 O.2     1  UNL1       -0.1477
      2 O           6.8499   41.6929    5.5523 O.2     1  UNL1       -0.1477
      3 S           7.5745   41.0425    6.6971 S.O2    1  UNL1        0.1010
      4 C          11.6823   41.2828    6.4691 C.ar    1  UNL1        0.1893
      5 C           9.2985   41.1694    6.4132 C.ar    1  UNL1        0.2593
      6 N          11.1820   41.3073    5.2137 N.ar    1  UNL1       -0.1239
      7 N           9.8524   41.2422    5.1835 N.ar    1  UNL1       -0.1187
      8 S          10.4665   41.1771    7.6270 S.2     1  UNL1       -0.0102
      9 C          13.8139   42.5399    7.0345 C.2     1  UNL1        0.2276
     10 O          13.2561   43.6676    6.9752 O.2     1  UNL1       -0.2747
     11 N          13.0772   41.3381    6.7819 N.am    1  UNL1       -0.2627
     12 H          13.5677   40.4857    6.8271 H       1  UNL1        0.1568
     13 C          15.2679   42.4607    7.3583 C.3     1  UNL1        0.0854
     14 C          17.3767   43.7711    7.6180 C.3     1  UNL1        0.0005
     15 C          15.9715   43.7719    7.0454 C.3     1  UNL1        0.0096
     16 N           7.1752   41.8303    8.1958 N.pl3   1  UNL1       -0.1891
     17 C           6.0328   42.7028    8.2646 C.ar    1  UNL1        0.0649
     18 C           4.8625   42.3426    8.9715 C.ar    1  UNL1       -0.0070
     19 C           4.7211   41.0214    9.6454 C.3     1  UNL1        0.0324
     20 C           3.7728   43.2185    9.0087 C.ar    1  UNL1       -0.0030
     21 C           3.8306   44.4489    8.3516 C.ar    1  UNL1       -0.0002
     22 C           4.9788   44.8085    7.6456 C.ar    1  UNL1        0.0013
     23 C           6.0707   43.9397    7.6014 C.ar    1  UNL1        0.0158
     24 C           8.1550   41.8355    9.2765 C.3     1  UNL1        0.1160
     25 C           8.3804   43.2479    9.7857 C.3     1  UNL1        0.0252
@<TRIPOS>BOND
     1    14    15    1
     2    15    13    1
     3    13     9    1
     4     9    11   am
     5     4     8   ar
     6     5     8   ar
     7    24    16    1
     8    24    25    1
     9    18    20   ar
    10    19    18    1
    11    21    22   ar
    12    23    17   ar
    13    11     4    1
    14     6     7   ar
    15    16    17    1
    16     3     5    1
    17     3    16    1
    18     9    10    2
    19     4     6   ar
    20     5     7   ar
    21    17    18   ar
    22    20    21   ar
    23    22    23   ar
    24     3     1    2
    25     3     2    2
    26    11    12    1
@<TRIPOS>MOLECULE
MolPort-007-723-467 6818306 ChemDiv-E157-5727 MCULE-9072842945 PubChem-22518023 ZINC000006818306 ZINC06818306
 25 26 0 0 0
SMALL
GASTEIGER

@<TRIPOS>ATOM
      1 O           6.8758   39.9178    6.9322 O.2     1  UNL1       -0.1477
      2 O           6.6929   41.8008    5.3751 O.2     1  UNL1       -0.1477
      3 S           7.3411   41.3170    6.6416 S.O2    1  UNL1        0.1010
      4 C          11.4611   41.3803    6.5679 C.ar    1  UNL1        0.1893
      5 C           9.0790   41.3293    6.4214 C.ar    1  UNL1        0.2593
      6 N          11.0142   41.1541    5.3125 N.ar    1  UNL1       -0.1239
      7 N           9.6855   41.1240    5.2321 N.ar    1  UNL1       -0.1187
      8 S          10.1954   41.5581    7.6619 S.2     1  UNL1       -0.0102
      9 C          13.6773   42.6065    6.7370 C.2     1  UNL1        0.2276
     10 O          13.2276   43.6525    6.1981 O.2     1  UNL1       -0.2747
     11 N          12.8430   41.4586    6.9295 N.am    1  UNL1       -0.2627
     12 H          13.2513   40.6633    7.3418 H       1  UNL1        0.1568
     13 C          15.1053   42.5622    7.1660 C.3     1  UNL1        0.0854
     14 C          17.0563   44.0508    7.6232 C.3     1  UNL1        0.0005
     15 C          15.8455   43.8198    6.7384 C.3     1  UNL1        0.0096
     16 N           6.9192   42.3520    7.9746 N.pl3   1  UNL1       -0.1891
     17 C           6.1664   41.8239    9.0815 C.ar    1  UNL1        0.0649
     18 C           6.7213   41.7218   10.3780 C.ar    1  UNL1       -0.0070
     19 C           8.1310   42.1071   10.6672 C.3     1  UNL1        0.0324
     20 C           5.9560   41.1976   11.4248 C.ar    1  UNL1       -0.0030
     21 C           4.6453   40.7728   11.2000 C.ar    1  UNL1       -0.0002
     22 C           4.0931   40.8633    9.9221 C.ar    1  UNL1        0.0013
     23 C           4.8501   41.3833    8.8707 C.ar    1  UNL1        0.0158
     24 C           7.0715   43.7953    7.8267 C.3     1  UNL1        0.1160
     25 C           5.7144   44.4662    7.7129 C.3     1  UNL1        0.0252
@<TRIPOS>BOND
     1    14    15    1
     2    15    13    1
     3    13     9    1
     4     9    11   am
     5     4     8   ar
     6     5     8   ar
     7    24    16    1
     8    24    25    1
     9    18    20   ar
    10    19    18    1
    11    21    22   ar
    12    23    17   ar
    13    11     4    1
    14     6     7   ar
    15    16    17    1
    16     3     5    1
    17     3    16    1
    18     9    10    2
    19     4     6   ar
    20     5     7   ar
    21    17    18   ar
    22    20    21   ar
    23    22    23   ar
    24     3     1    2
    25     3     2    2
    26    11    12    1
@<TRIPOS>MOLECULE
MolPort-007-723-467 6818306 ChemDiv-E157-5727 MCULE-9072842945 PubChem-22518023 ZINC000006818306 ZINC06818306
 25 26 0 0 0
SMALL
GASTEIGER

@<TRIPOS>ATOM
      1 O          10.7069   41.7356   11.7229 O.2     1  UNL1       -0.1477
      2 O          11.1602   43.3723    9.9566 O.2     1  UNL1       -0.1477
      3 S          10.5270   42.0442   10.2631 S.O2    1  UNL1        0.1010
      4 C           6.4433   42.3517    9.8025 C.ar    1  UNL1        0.1893
      5 C           8.8194   42.1369    9.8834 C.ar    1  UNL1        0.2593
      6 N           7.0005   42.1893    8.5818 N.ar    1  UNL1       -0.1239
      7 N           8.3259   42.0714    8.6278 N.ar    1  UNL1       -0.1187
      8 S           7.5997   42.3558   11.0244 S.2     1  UNL1       -0.0102
      9 C           4.2764   41.7407   10.9750 C.2     1  UNL1        0.2276
     10 O           4.8166   40.8399   11.6703 O.2     1  UNL1       -0.2747
     11 N           5.0398   42.5038   10.0340 N.am    1  UNL1       -0.2627
     12 H           4.5627   43.1846    9.5065 H       1  UNL1        0.1568
     13 C           2.8157   42.0028   11.1268 C.3     1  UNL1        0.0854
     14 C           0.9600   42.4774   12.7277 C.3     1  UNL1        0.0005
     15 C           2.4313   42.1319   12.5924 C.3     1  UNL1        0.0096
     16 N          11.2635   40.7859    9.3141 N.pl3   1  UNL1       -0.1891
     17 C          12.6803   40.5525    9.4096 C.ar    1  UNL1        0.0649
     18 C          13.5878   41.0851    8.4652 C.ar    1  UNL1       -0.0070
     19 C          13.1307   41.8772    7.2890 C.3     1  UNL1        0.0324
     20 C          14.9569   40.8295    8.5925 C.ar    1  UNL1       -0.0030
     21 C          15.4368   40.0504    9.6468 C.ar    1  UNL1       -0.0002
     22 C          14.5471   39.5149   10.5785 C.ar    1  UNL1        0.0013
     23 C          13.1786   39.7632   10.4584 C.ar    1  UNL1        0.0158
     24 C          10.5031   40.1827    8.2251 C.3     1  UNL1        0.1160
     25 C          10.4306   38.6759    8.3955 C.3     1  UNL1        0.0252
@<TRIPOS>BOND
     1    14    15    1
     2    15    13    1
     3    13     9    1
     4     9    11   am
     5     4     8   ar
     6     5     8   ar
     7    24    16    1
     8    24    25    1
     9    18    20   ar
    10    19    18    1
    11    21    22   ar
    12    23    17   ar
    13    11     4    1
    14     6     7   ar
    15    16    17    1
    16     3     5    1
    17     3    16    1
    18     9    10    2
    19     4     6   ar
    20     5     7   ar
    21    17    18   ar
    22    20    21   ar
    23    22    23   ar
    24     3     1    2
    25     3     2    2
    26    11    12    1
@<TRIPOS>MOLECULE
MolPort-007-723-467 6818306 ChemDiv-E157-5727 MCULE-9072842945 PubChem-22518023 ZINC000006818306 ZINC06818306
 25 26 0 0 0
SMALL
GASTEIGER

@<TRIPOS>ATOM
      1 O          10.9085   42.6241    8.4194 O.2     1  UNL1       -0.1477
      2 O          10.9723   41.9934    6.0525 O.2     1  UNL1       -0.1477
      3 S          10.4823   41.5906    7.4149 S.O2    1  UNL1        0.1010
      4 C           6.3839   41.3376    7.7653 C.ar    1  UNL1        0.1893
      5 C           8.7338   41.4902    7.3742 C.ar    1  UNL1        0.2593
      6 N           6.6909   41.5301    6.4631 N.ar    1  UNL1       -0.1239
      7 N           8.0017   41.6169    6.2463 N.ar    1  UNL1       -0.1187
      8 S           7.7602   41.2641    8.7300 S.2     1  UNL1       -0.0102
      9 C           4.3749   42.2001    9.0552 C.2     1  UNL1        0.2276
     10 O           4.9465   43.2751    9.3778 O.2     1  UNL1       -0.2747
     11 N           5.0508   41.2122    8.2690 N.am    1  UNL1       -0.2627
     12 H           4.5610   40.3843    8.0594 H       1  UNL1        0.1568
     13 C           2.9777   41.9499    9.5139 C.3     1  UNL1        0.0854
     14 C           3.7439   40.8837   11.6371 C.3     1  UNL1        0.0005
     15 C           2.8855   41.9785   11.0315 C.3     1  UNL1        0.0096
     16 N          11.1405   40.0447    7.8655 N.pl3   1  UNL1       -0.1891
     17 C          12.2662   39.9782    8.7596 C.ar    1  UNL1        0.0649
     18 C          12.1028   39.9868   10.1640 C.ar    1  UNL1       -0.0070
     19 C          10.7632   40.1144   10.8033 C.3     1  UNL1        0.0324
     20 C          13.2246   39.9257   10.9970 C.ar    1  UNL1       -0.0030
     21 C          14.5081   39.8566   10.4523 C.ar    1  UNL1       -0.0002
     22 C          14.6782   39.8553    9.0676 C.ar    1  UNL1        0.0013
     23 C          13.5644   39.9179    8.2283 C.ar    1  UNL1        0.0158
     24 C          10.7431   38.8592    7.1140 C.3     1  UNL1        0.1160
     25 C           9.5563   38.1814    7.7749 C.3     1  UNL1        0.0252
@<TRIPOS>BOND
     1    14    15    1
     2    15    13    1
     3    13     9    1
     4     9    11   am
     5     4     8   ar
     6     5     8   ar
     7    24    16    1
     8    24    25    1
     9    18    20   ar
    10    19    18    1
    11    21    22   ar
    12    23    17   ar
    13    11     4    1
    14     6     7   ar
    15    16    17    1
    16     3     5    1
    17     3    16    1
    18     9    10    2
    19     4     6   ar
    20     5     7   ar
    21    17    18   ar
    22    20    21   ar
    23    22    23   ar
    24     3     1    2
    25     3     2    2
    26    11    12    1
@<TRIPOS>MOLECULE
MolPort-007-723-467 6818306 ChemDiv-E157-5727 MCULE-9072842945 PubChem-22518023 ZINC000006818306 ZINC06818306
 25 26 0 0 0
SMALL
GASTEIGER

@<TRIPOS>ATOM
      1 O          13.3901   43.8847    6.8786 O.2     1  UNL1       -0.1477
      2 O          12.7803   41.8189    5.7104 O.2     1  UNL1       -0.1477
      3 S          13.0956   42.4211    7.0508 S.O2    1  UNL1        0.1010
      4 C           9.6588   41.6713    9.1977 C.ar    1  UNL1        0.1893
      5 C          11.7063   42.2157    8.0979 C.ar    1  UNL1        0.2593
      6 N          10.4938   42.4029    9.9687 N.ar    1  UNL1       -0.1239
      7 N          11.6363   42.7045    9.3550 N.ar    1  UNL1       -0.1187
      8 S          10.3173   41.3585    7.6815 S.2     1  UNL1       -0.0102
      9 C           7.1218   41.7510    9.1625 C.2     1  UNL1        0.2276
     10 O           7.0865   42.7115    8.3484 O.2     1  UNL1       -0.2747
     11 N           8.3694   41.2135    9.6157 N.am    1  UNL1       -0.2627
     12 H           8.3374   40.4731   10.2637 H       1  UNL1        0.1568
     13 C           5.8421   41.1776    9.6712 C.3     1  UNL1        0.0854
     14 C           4.2459   42.0741   11.3683 C.3     1  UNL1        0.0005
     15 C           4.8364   42.2742    9.9850 C.3     1  UNL1        0.0096
     16 N          14.4764   41.6361    7.7605 N.pl3   1  UNL1       -0.1891
     17 C          14.3066   40.4040    8.4845 C.ar    1  UNL1        0.0649
     18 C          15.2816   39.9350    9.3946 C.ar    1  UNL1       -0.0070
     19 C          16.5632   40.6595    9.6232 C.3     1  UNL1        0.0324
     20 C          15.0790   38.7293   10.0739 C.ar    1  UNL1       -0.0030
     21 C          13.9190   37.9825    9.8601 C.ar    1  UNL1       -0.0002
     22 C          12.9556   38.4346    8.9580 C.ar    1  UNL1        0.0013
     23 C          13.1503   39.6359    8.2740 C.ar    1  UNL1        0.0158
     24 C          15.7311   42.3720    7.8699 C.3     1  UNL1        0.1160
     25 C          15.6540   43.6763    7.0969 C.3     1  UNL1        0.0252
@<TRIPOS>BOND
     1    14    15    1
     2    15    13    1
     3    13     9    1
     4     9    11   am
     5     4     8   ar
     6     5     8   ar
     7    24    16    1
     8    24    25    1
     9    18    20   ar
    10    19    18    1
    11    21    22   ar
    12    23    17   ar
    13    11     4    1
    14     6     7   ar
    15    16    17    1
    16     3     5    1
    17     3    16    1
    18     9    10    2
    19     4     6   ar
    20     5     7   ar
    21    17    18   ar
    22    20    21   ar
    23    22    23   ar
    24     3     1    2
    25     3     2    2
    26    11    12    1
@<TRIPOS>MOLECULE
MolPort-007-723-467 6818306 ChemDiv-E157-5727 MCULE-9072842945 PubChem-22518023 ZINC000006818306 ZINC06818306
 25 26 0 0 0
SMALL
GASTEIGER

@<TRIPOS>ATOM
      1 O          11.8699   42.8174    9.3227 O.2     1  UNL1       -0.1477
      2 O          11.0123   42.3590    7.0736 O.2     1  UNL1       -0.1477
      3 S          11.0125   41.8946    8.5028 S.O2    1  UNL1        0.1010
      4 C           7.0157   41.8365    9.5057 C.ar    1  UNL1        0.1893
      5 C           9.3668   41.9265    9.1024 C.ar    1  UNL1        0.2593
      6 N           7.7324   42.1055   10.6196 N.ar    1  UNL1       -0.1239
      7 N           9.0438   42.1538   10.3940 N.ar    1  UNL1       -0.1187
      8 S           8.0021   41.6420    8.1568 S.2     1  UNL1       -0.0102
      9 C           4.6877   42.8228    9.2788 C.2     1  UNL1        0.2276
     10 O           5.1159   43.9992    9.1402 O.2     1  UNL1       -0.2747
     11 N           5.5897   41.7273    9.4717 N.am    1  UNL1       -0.2627
     12 H           5.1989   40.8315    9.5898 H       1  UNL1        0.1568
     13 C           3.2171   42.5737    9.2561 C.3     1  UNL1        0.0854
     14 C           2.8432   42.2010   11.6959 C.3     1  UNL1        0.0005
     15 C           2.8157   41.5634   10.3193 C.3     1  UNL1        0.0096
     16 N          11.6385   40.2754    8.6161 N.pl3   1  UNL1       -0.1891
     17 C          12.8101   40.0140    9.4098 C.ar    1  UNL1        0.0649
     18 C          14.0942   40.4472    9.0066 C.ar    1  UNL1       -0.0070
     19 C          14.3204   41.1556    7.7156 C.3     1  UNL1        0.0324
     20 C          15.2074   40.1674    9.8057 C.ar    1  UNL1       -0.0030
     21 C          15.0614   39.4617   11.0014 C.ar    1  UNL1       -0.0002
     22 C          13.7988   39.0242   11.4024 C.ar    1  UNL1        0.0013
     23 C          12.6822   39.2972   10.6102 C.ar    1  UNL1        0.0158
     24 C          11.1559   39.2625    7.6839 C.3     1  UNL1        0.1160
     25 C          11.4430   39.6752    6.2515 C.3     1  UNL1        0.0252
@<TRIPOS>BOND
     1    14    15    1
     2    15    13    1
     3    13     9    1
     4     9    11   am
     5     4     8   ar
     6     5     8   ar
     7    24    16    1
     8    24    25    1
     9    18    20   ar
    10    19    18    1
    11    21    22   ar
    12    23    17   ar
    13    11     4    1
    14     6     7   ar
    15    16    17    1
    16     3     5    1
    17     3    16    1
    18     9    10    2
    19     4     6   ar
    20     5     7   ar
    21    17    18   ar
    22    20    21   ar
    23    22    23   ar
    24     3     1    2
    25     3     2    2
    26    11    12    1
@<TRIPOS>MOLECULE
MolPort-007-723-467 6818306 ChemDiv-E157-5727 MCULE-9072842945 PubChem-22518023 ZINC000006818306 ZINC06818306
 25 26 0 0 0
SMALL
GASTEIGER

@<TRIPOS>ATOM
      1 O          11.7114   41.0279   10.7593 O.2     1  UNL1       -0.1477
      2 O          11.8361   42.8075    9.0797 O.2     1  UNL1       -0.1477
      3 S          11.3373   41.4172    9.3568 S.O2    1  UNL1        0.1010
      4 C           7.2277   41.7087    9.2538 C.ar    1  UNL1        0.1893
      5 C           9.5941   41.4026    9.1832 C.ar    1  UNL1        0.2593
      6 N           7.6187   40.8348    8.2997 N.ar    1  UNL1       -0.1239
      7 N           8.9389   40.6661    8.2599 N.ar    1  UNL1       -0.1187
      8 S           8.5358   42.3263   10.1128 S.2     1  UNL1       -0.0102
      9 C           5.1322   43.0599    8.7776 C.2     1  UNL1        0.2276
     10 O           5.6710   43.7103    7.8430 O.2     1  UNL1       -0.2747
     11 N           5.8669   42.0702    9.5067 N.am    1  UNL1       -0.2627
     12 H           5.4002   41.6034   10.2371 H       1  UNL1        0.1568
     13 C           3.7116   43.3389    9.1369 C.3     1  UNL1        0.0854
     14 C           2.6119   41.1141    9.4062 C.3     1  UNL1        0.0005
     15 C           3.1868   42.3161   10.1323 C.3     1  UNL1        0.0096
     16 N          12.0398   40.2849    8.2385 N.pl3   1  UNL1       -0.1891
     17 C          12.8157   39.1779    8.7322 C.ar    1  UNL1        0.0649
     18 C          12.2118   37.9593    9.1187 C.ar    1  UNL1       -0.0070
     19 C          10.7353   37.7632    9.0857 C.3     1  UNL1        0.0324
     20 C          13.0028   36.9102    9.5981 C.ar    1  UNL1       -0.0030
     21 C          14.3876   37.0563    9.6989 C.ar    1  UNL1       -0.0002
     22 C          14.9902   38.2582    9.3267 C.ar    1  UNL1        0.0013
     23 C          14.2084   39.3116    8.8489 C.ar    1  UNL1        0.0158
     24 C          12.0867   40.6255    6.8209 C.3     1  UNL1        0.1160
     25 C          11.1768   39.7101    6.0216 C.3     1  UNL1        0.0252
@<TRIPOS>BOND
     1    14    15    1
     2    15    13    1
     3    13     9    1
     4     9    11   am
     5     4     8   ar
     6     5     8   ar
     7    24    16    1
     8    24    25    1
     9    18    20   ar
    10    19    18    1
    11    21    22   ar
    12    23    17   ar
    13    11     4    1
    14     6     7   ar
    15    16    17    1
    16     3     5    1
    17     3    16    1
    18     9    10    2
    19     4     6   ar
    20     5     7   ar
    21    17    18   ar
    22    20    21   ar
    23    22    23   ar
    24     3     1    2
    25     3     2    2
    26    11    12    1
