@<TRIPOS>MOLECULE
MolPort-039-210-489 CSSS03436966926 MCULE-6897107569 PubChem-119099798
 28 30 0 0 0
SMALL
GASTEIGER

@<TRIPOS>ATOM
      1 S           8.8182   40.8601    7.0018 S.O2    1  UNL1        0.0583
      2 O           8.6891   41.3444    5.5848 O.2     1  UNL1       -0.1541
      3 O           7.9081   39.6851    7.2252 O.2     1  UNL1       -0.1541
      4 N          10.4561   40.3924    7.3086 N.pl3   1  UNL1       -0.2154
      5 H          10.6540   39.4425    7.4751 H       1  UNL1        0.1735
      6 C          11.5312   41.3317    7.3296 C.ar    1  UNL1        0.1040
      7 C          12.4527   41.5051    6.3230 C.ar    1  UNL1        0.1125
      8 C          11.8374   42.2159    8.3468 C.ar    1  UNL1        0.1374
      9 N          13.2764   42.4779    6.7509 N.ar    1  UNL1       -0.2456
     10 N          12.9248   42.9073    7.9532 N.ar    1  UNL1       -0.1662
     11 C          14.4253   42.9826    6.0164 C.3     1  UNL1        0.1569
     12 C          15.5300   43.3981    6.9749 C.3     1  UNL1        0.1395
     13 C          15.8264   42.2677    7.9769 C.3     1  UNL1        0.0317
     14 C          17.3312   42.0661    8.1729 C.3     1  UNL1        0.0051
     15 C          18.0788   43.4013    8.2118 C.3     1  UNL1        0.0322
     16 C          17.5412   44.3855    7.1599 C.3     1  UNL1        0.1421
     17 O          16.6817   43.7470    6.2466 O.3     1  UNL1       -0.3542
     18 C           8.3776   42.1754    8.1225 C.3     1  UNL1        0.1987
     19 C           4.7632   41.1945   10.2284 C.ar    1  UNL1        0.0714
     20 C           5.9673   41.3602   10.9272 C.ar    1  UNL1        0.0036
     21 C           7.1421   41.6843   10.2429 C.ar    1  UNL1       -0.0026
     22 C           7.1212   41.8484    8.8542 C.ar    1  UNL1        0.0032
     23 C           5.9244   41.6806    8.1505 C.ar    1  UNL1       -0.0026
     24 C           4.7497   41.3564    8.8349 C.ar    1  UNL1        0.0036
     25 F           3.6185   41.2815   12.2869 F       1  UNL1       -0.1659
     26 F           2.4271   41.4667   10.3833 F       1  UNL1       -0.1659
     27 F           3.2945   39.4783   10.9805 F       1  UNL1       -0.1659
     28 C           3.5101   40.8462   10.9787 C.3     1  UNL1        0.4186
@<TRIPOS>BOND
     1    28    25    1
     2    28    26    1
     3    28    27    1
     4    28    19    1
     5    20    21   ar
     6    22    23   ar
     7    18    22    1
     8    18     1    1
     9     7     9   ar
    10    11     9    1
    11    12    11    1
    12    12    13    1
    13    12    17    1
    14    13    14    1
    15    14    15    1
    16    15    16    1
    17    16    17    1
    18     8     6   ar
    19    24    19   ar
    20     1     4    1
    21     4     6    1
    22     9    10   ar
    23    19    20   ar
    24    21    22   ar
    25     6     7   ar
    26     8    10   ar
    27    23    24   ar
    28     1     2    2
    29     1     3    2
    30     4     5    1
@<TRIPOS>MOLECULE
MolPort-039-210-489 CSSS03436966926 MCULE-6897107569 PubChem-119099798
 28 30 0 0 0
SMALL
GASTEIGER

@<TRIPOS>ATOM
      1 S          10.9329   41.7611    7.7163 S.O2    1  UNL1        0.0583
      2 O           9.4989   42.0481    7.3695 O.2     1  UNL1       -0.1541
      3 O          11.4451   42.8004    8.6736 O.2     1  UNL1       -0.1541
      4 N          11.0524   40.1942    8.4417 N.pl3   1  UNL1       -0.2154
      5 H          10.5001   39.4628    8.0824 H       1  UNL1        0.1735
      6 C          11.9214   39.9221    9.5414 C.ar    1  UNL1        0.1040
      7 C          13.1738   39.3615    9.4428 C.ar    1  UNL1        0.1125
      8 C          11.6647   40.1633   10.8779 C.ar    1  UNL1        0.1374
      9 N          13.6352   39.2841   10.7033 N.ar    1  UNL1       -0.2456
     10 N          12.7479   39.7537   11.5668 N.ar    1  UNL1       -0.1662
     11 C          14.9239   38.7316   11.0886 C.3     1  UNL1        0.1569
     12 C          15.0536   37.2955   10.6065 C.3     1  UNL1        0.1395
     13 C          13.8169   36.4761   11.0172 C.3     1  UNL1        0.0317
     14 C          13.3236   35.5853    9.8741 C.3     1  UNL1        0.0051
     15 C          14.4891   34.9628    9.1011 C.3     1  UNL1        0.0322
     16 C          15.6314   35.9692    8.8857 C.3     1  UNL1        0.1421
     17 O          15.2341   37.2793    9.2116 O.3     1  UNL1       -0.3542
     18 C          11.9198   41.7824    6.2311 C.3     1  UNL1        0.1987
     19 C          15.8448   43.3160    7.0699 C.ar    1  UNL1        0.0714
     20 C          15.4191   42.1086    7.6415 C.ar    1  UNL1        0.0036
     21 C          14.1442   41.6070    7.3646 C.ar    1  UNL1       -0.0026
     22 C          13.2860   42.3077    6.5111 C.ar    1  UNL1        0.0032
     23 C          13.7027   43.5147    5.9410 C.ar    1  UNL1       -0.0026
     24 C          14.9776   44.0162    6.2179 C.ar    1  UNL1        0.0036
     25 F          17.5590   44.8116    6.4535 F       1  UNL1       -0.1659
     26 F          17.2261   44.3982    8.6435 F       1  UNL1       -0.1659
     27 F          18.1605   42.8283    7.3300 F       1  UNL1       -0.1659
     28 C          17.2174   43.8411    7.3778 C.3     1  UNL1        0.4186
@<TRIPOS>BOND
     1    28    25    1
     2    28    26    1
     3    28    27    1
     4    28    19    1
     5    20    21   ar
     6    22    23   ar
     7    18    22    1
     8    18     1    1
     9     7     9   ar
    10    11     9    1
    11    12    11    1
    12    12    13    1
    13    12    17    1
    14    13    14    1
    15    14    15    1
    16    15    16    1
    17    16    17    1
    18     8     6   ar
    19    24    19   ar
    20     1     4    1
    21     4     6    1
    22     9    10   ar
    23    19    20   ar
    24    21    22   ar
    25     6     7   ar
    26     8    10   ar
    27    23    24   ar
    28     1     2    2
    29     1     3    2
    30     4     5    1
@<TRIPOS>MOLECULE
MolPort-039-210-489 CSSS03436966926 MCULE-6897107569 PubChem-119099798
 28 30 0 0 0
SMALL
GASTEIGER

@<TRIPOS>ATOM
      1 S          10.8629   41.5304    8.2285 S.O2    1  UNL1        0.0583
      2 O           9.5861   41.9185    7.5370 O.2     1  UNL1       -0.1541
      3 O          11.4323   42.7171    8.9541 O.2     1  UNL1       -0.1541
      4 N          10.5480   40.2563    9.3568 N.pl3   1  UNL1       -0.2154
      5 H           9.6138   40.0018    9.5349 H       1  UNL1        0.1735
      6 C          11.5913   39.5603   10.0392 C.ar    1  UNL1        0.1040
      7 C          11.9455   38.2492    9.8200 C.ar    1  UNL1        0.1125
      8 C          12.4148   40.0664   11.0271 C.ar    1  UNL1        0.1374
      9 N          12.9611   38.0030   10.6659 N.ar    1  UNL1       -0.2456
     10 N          13.2485   39.0727   11.3918 N.ar    1  UNL1       -0.1662
     11 C          13.6450   36.7270   10.8011 C.3     1  UNL1        0.1569
     12 C          14.5495   36.4778    9.6046 C.3     1  UNL1        0.1395
     13 C          15.8147   37.3499    9.6956 C.3     1  UNL1        0.0317
     14 C          17.0745   36.5576    9.3366 C.3     1  UNL1        0.0051
     15 C          16.8273   35.6067    8.1627 C.3     1  UNL1        0.0322
     16 C          15.4589   34.9140    8.2698 C.3     1  UNL1        0.1421
     17 O          14.8774   35.1116    9.5360 O.3     1  UNL1       -0.3542
     18 C          12.0404   40.9499    7.0216 C.3     1  UNL1        0.1987
     19 C          15.9535   42.5661    7.7546 C.ar    1  UNL1        0.0714
     20 C          15.1220   43.1376    6.7810 C.ar    1  UNL1        0.0036
     21 C          13.8471   42.6152    6.5461 C.ar    1  UNL1       -0.0026
     22 C          13.3924   41.5185    7.2854 C.ar    1  UNL1        0.0032
     23 C          14.2182   40.9411    8.2550 C.ar    1  UNL1       -0.0026
     24 C          15.4930   41.4636    8.4899 C.ar    1  UNL1        0.0036
     25 F          17.4849   43.3926    9.3441 F       1  UNL1       -0.1659
     26 F          18.2805   42.2327    7.5835 F       1  UNL1       -0.1659
     27 F          17.4947   44.3213    7.2944 F       1  UNL1       -0.1659
     28 C          17.3203   43.1393    7.9944 C.3     1  UNL1        0.4186
@<TRIPOS>BOND
     1    28    25    1
     2    28    26    1
     3    28    27    1
     4    28    19    1
     5    20    21   ar
     6    22    23   ar
     7    18    22    1
     8    18     1    1
     9     7     9   ar
    10    11     9    1
    11    12    11    1
    12    12    13    1
    13    12    17    1
    14    13    14    1
    15    14    15    1
    16    15    16    1
    17    16    17    1
    18     8     6   ar
    19    24    19   ar
    20     1     4    1
    21     4     6    1
    22     9    10   ar
    23    19    20   ar
    24    21    22   ar
    25     6     7   ar
    26     8    10   ar
    27    23    24   ar
    28     1     2    2
    29     1     3    2
    30     4     5    1
@<TRIPOS>MOLECULE
MolPort-039-210-489 CSSS03436966926 MCULE-6897107569 PubChem-119099798
 28 30 0 0 0
SMALL
GASTEIGER

@<TRIPOS>ATOM
      1 S          10.9664   40.7211    8.6939 S.O2    1  UNL1        0.0583
      2 O           9.7263   41.5525    8.5208 O.2     1  UNL1       -0.1541
      3 O          11.9045   41.3965    9.6544 O.2     1  UNL1       -0.1541
      4 N          10.5376   39.1587    9.3028 N.pl3   1  UNL1       -0.2154
      5 H           9.6064   38.9972    9.5782 H       1  UNL1        0.1735
      6 C          11.4829   38.0953    9.4208 C.ar    1  UNL1        0.1040
      7 C          12.7153   38.0581    8.8106 C.ar    1  UNL1        0.1125
      8 C          11.3319   36.9315   10.1510 C.ar    1  UNL1        0.1374
      9 N          13.2695   36.8921    9.1864 N.ar    1  UNL1       -0.2456
     10 N          12.4575   36.2108    9.9802 N.ar    1  UNL1       -0.1662
     11 C          14.5747   36.4124    8.7616 C.3     1  UNL1        0.1569
     12 C          15.6781   37.2743    9.3545 C.3     1  UNL1        0.1395
     13 C          15.2246   38.7425    9.4441 C.3     1  UNL1        0.0317
     14 C          15.6127   39.3735   10.7839 C.3     1  UNL1        0.0051
     15 C          17.0049   38.9254   11.2359 C.3     1  UNL1        0.0322
     16 C          17.2363   37.4292   10.9676 C.3     1  UNL1        0.1421
     17 O          16.0397   36.7757   10.6191 O.3     1  UNL1       -0.3542
     18 C          11.7731   40.5204    7.1162 C.3     1  UNL1        0.1987
     19 C          15.0010   43.3290    6.7249 C.ar    1  UNL1        0.0714
     20 C          15.1163   42.2339    7.5927 C.ar    1  UNL1        0.0036
     21 C          14.0684   41.3173    7.7163 C.ar    1  UNL1       -0.0026
     22 C          12.8977   41.4872    6.9702 C.ar    1  UNL1        0.0032
     23 C          12.7745   42.5796    6.1058 C.ar    1  UNL1       -0.0026
     24 C          13.8224   43.4960    5.9824 C.ar    1  UNL1        0.0036
     25 F          17.0601   43.8277    5.6922 F       1  UNL1       -0.1659
     26 F          15.6531   45.5234    6.1639 F       1  UNL1       -0.1659
     27 F          16.7666   44.4887    7.8230 F       1  UNL1       -0.1659
     28 C          16.1360   44.3045    6.6040 C.3     1  UNL1        0.4186
@<TRIPOS>BOND
     1    28    25    1
     2    28    26    1
     3    28    27    1
     4    28    19    1
     5    20    21   ar
     6    22    23   ar
     7    18    22    1
     8    18     1    1
     9     7     9   ar
    10    11     9    1
    11    12    11    1
    12    12    13    1
    13    12    17    1
    14    13    14    1
    15    14    15    1
    16    15    16    1
    17    16    17    1
    18     8     6   ar
    19    24    19   ar
    20     1     4    1
    21     4     6    1
    22     9    10   ar
    23    19    20   ar
    24    21    22   ar
    25     6     7   ar
    26     8    10   ar
    27    23    24   ar
    28     1     2    2
    29     1     3    2
    30     4     5    1
@<TRIPOS>MOLECULE
MolPort-039-210-489 CSSS03436966926 MCULE-6897107569 PubChem-119099798
 28 30 0 0 0
SMALL
GASTEIGER

@<TRIPOS>ATOM
      1 S          11.0191   40.6512    8.7347 S.O2    1  UNL1        0.0583
      2 O           9.8290   41.4115    8.2202 O.2     1  UNL1       -0.1541
      3 O          11.7674   41.4883    9.7338 O.2     1  UNL1       -0.1541
      4 N          10.4904   39.1845    9.4862 N.pl3   1  UNL1       -0.2154
      5 H           9.5322   39.0715    9.6820 H       1  UNL1        0.1735
      6 C          11.3907   38.1321    9.8330 C.ar    1  UNL1        0.1040
      7 C          12.7602   38.2478    9.8940 C.ar    1  UNL1        0.1125
      8 C          11.0565   36.8313   10.1591 C.ar    1  UNL1        0.1374
      9 N          13.2097   37.0329   10.2540 N.ar    1  UNL1       -0.2456
     10 N          12.2088   36.1803   10.4118 N.ar    1  UNL1       -0.1662
     11 C          14.6093   36.6762   10.4224 C.3     1  UNL1        0.1569
     12 C          15.1514   36.0332    9.1557 C.3     1  UNL1        0.1395
     13 C          16.4759   36.6979    8.7391 C.3     1  UNL1        0.0317
     14 C          17.5208   35.6613    8.3179 C.3     1  UNL1        0.0051
     15 C          16.8929   34.5252    7.5066 C.3     1  UNL1        0.0322
     16 C          15.5366   34.0928    8.0877 C.3     1  UNL1        0.1421
     17 O          15.3182   34.6516    9.3607 O.3     1  UNL1       -0.3542
     18 C          12.0974   40.2425    7.3744 C.3     1  UNL1        0.1987
     19 C          15.3803   43.0086    7.1939 C.ar    1  UNL1        0.0714
     20 C          15.4256   41.9115    8.0657 C.ar    1  UNL1        0.0036
     21 C          14.3600   41.0087    8.1209 C.ar    1  UNL1       -0.0026
     22 C          13.2416   41.1945    7.3019 C.ar    1  UNL1        0.0032
     23 C          13.1881   42.2889    6.4330 C.ar    1  UNL1       -0.0026
     24 C          14.2537   43.1916    6.3780 C.ar    1  UNL1        0.0036
     25 F          17.5988   43.3805    6.4905 F       1  UNL1       -0.1659
     26 F          16.1562   45.1113    6.4647 F       1  UNL1       -0.1659
     27 F          16.9375   44.3250    8.4228 F       1  UNL1       -0.1659
     28 C          16.5333   43.9691    7.1470 C.3     1  UNL1        0.4186
@<TRIPOS>BOND
     1    28    25    1
     2    28    26    1
     3    28    27    1
     4    28    19    1
     5    20    21   ar
     6    22    23   ar
     7    18    22    1
     8    18     1    1
     9     7     9   ar
    10    11     9    1
    11    12    11    1
    12    12    13    1
    13    12    17    1
    14    13    14    1
    15    14    15    1
    16    15    16    1
    17    16    17    1
    18     8     6   ar
    19    24    19   ar
    20     1     4    1
    21     4     6    1
    22     9    10   ar
    23    19    20   ar
    24    21    22   ar
    25     6     7   ar
    26     8    10   ar
    27    23    24   ar
    28     1     2    2
    29     1     3    2
    30     4     5    1
@<TRIPOS>MOLECULE
MolPort-039-210-489 CSSS03436966926 MCULE-6897107569 PubChem-119099798
 28 30 0 0 0
SMALL
GASTEIGER

@<TRIPOS>ATOM
      1 S          10.7778   41.5058    8.2350 S.O2    1  UNL1        0.0583
      2 O           9.6159   42.0743    7.4695 O.2     1  UNL1       -0.1541
      3 O          11.4287   42.5860    9.0526 O.2     1  UNL1       -0.1541
      4 N          10.2224   40.2422    9.2793 N.pl3   1  UNL1       -0.2154
      5 H           9.3329   40.3263    9.6927 H       1  UNL1        0.1735
      6 C          11.0051   39.0826    9.5641 C.ar    1  UNL1        0.1040
      7 C          12.0777   39.0411   10.4246 C.ar    1  UNL1        0.1125
      8 C          10.8332   37.8178    9.0337 C.ar    1  UNL1        0.1374
      9 N          12.5160   37.7704   10.3946 N.ar    1  UNL1       -0.2456
     10 N          11.7882   37.0330    9.5700 N.ar    1  UNL1       -0.1662
     11 C          13.6569   37.2627   11.1396 C.3     1  UNL1        0.1569
     12 C          14.9578   37.7218   10.5004 C.3     1  UNL1        0.1395
     13 C          15.4801   38.9921   11.1954 C.3     1  UNL1        0.0317
     14 C          16.9881   38.9188   11.4485 C.3     1  UNL1        0.0051
     15 C          17.7268   38.2758   10.2719 C.3     1  UNL1        0.0322
     16 C          16.9580   37.0696    9.7079 C.3     1  UNL1        0.1421
     17 O          15.9055   36.6839   10.5588 O.3     1  UNL1       -0.3542
     18 C          11.9668   40.8255    7.0933 C.3     1  UNL1        0.1987
     19 C          15.8710   42.5074    7.7177 C.ar    1  UNL1        0.0714
     20 C          15.0112   43.0516    6.7531 C.ar    1  UNL1        0.0036
     21 C          13.7392   42.5079    6.5535 C.ar    1  UNL1       -0.0026
     22 C          13.3157   41.4170    7.3194 C.ar    1  UNL1        0.0032
     23 C          14.1698   40.8666    8.2803 C.ar    1  UNL1       -0.0026
     24 C          15.4417   41.4105    8.4798 C.ar    1  UNL1        0.0036
     25 F          17.4468   43.3247    9.2680 F       1  UNL1       -0.1659
     26 F          18.1957   42.2285    7.4472 F       1  UNL1       -0.1659
     27 F          17.3568   44.3066    7.2453 F       1  UNL1       -0.1659
     28 C          17.2343   43.1033    7.9195 C.3     1  UNL1        0.4186
@<TRIPOS>BOND
     1    28    25    1
     2    28    26    1
     3    28    27    1
     4    28    19    1
     5    20    21   ar
     6    22    23   ar
     7    18    22    1
     8    18     1    1
     9     7     9   ar
    10    11     9    1
    11    12    11    1
    12    12    13    1
    13    12    17    1
    14    13    14    1
    15    14    15    1
    16    15    16    1
    17    16    17    1
    18     8     6   ar
    19    24    19   ar
    20     1     4    1
    21     4     6    1
    22     9    10   ar
    23    19    20   ar
    24    21    22   ar
    25     6     7   ar
    26     8    10   ar
    27    23    24   ar
    28     1     2    2
    29     1     3    2
    30     4     5    1
@<TRIPOS>MOLECULE
MolPort-039-210-489 CSSS03436966926 MCULE-6897107569 PubChem-119099798
 28 30 0 0 0
SMALL
GASTEIGER

@<TRIPOS>ATOM
      1 S           9.4270   41.4937    9.2033 S.O2    1  UNL1        0.0583
      2 O           8.8784   41.6449   10.5944 O.2     1  UNL1       -0.1541
      3 O           8.4309   42.0085    8.2023 O.2     1  UNL1       -0.1541
      4 N          10.9048   42.3835    9.0621 N.pl3   1  UNL1       -0.2154
      5 H          11.2027   42.9306    9.8244 H       1  UNL1        0.1735
      6 C          11.7083   42.3543    7.8823 C.ar    1  UNL1        0.1040
      7 C          12.8834   43.0475    7.7055 C.ar    1  UNL1        0.1125
      8 C          11.4537   41.6423    6.7254 C.ar    1  UNL1        0.1374
      9 N          13.3032   42.7370    6.4665 N.ar    1  UNL1       -0.2456
     10 N          12.4618   41.9056    5.8711 N.ar    1  UNL1       -0.1662
     11 C          14.5043   43.2604    5.8359 C.3     1  UNL1        0.1569
     12 C          15.5765   43.5361    6.8782 C.3     1  UNL1        0.1395
     13 C          15.6805   42.3610    7.8671 C.3     1  UNL1        0.0317
     14 C          17.1380   41.9953    8.1593 C.3     1  UNL1        0.0051
     15 C          18.0179   43.2416    8.2849 C.3     1  UNL1        0.0322
     16 C          17.6627   44.2982    7.2259 C.3     1  UNL1        0.1421
     17 O          16.8070   43.7737    6.2395 O.3     1  UNL1       -0.3542
     18 C           9.7607   39.7721    8.8792 C.3     1  UNL1        0.1987
     19 C          13.3341   38.5080   10.9025 C.ar    1  UNL1        0.0714
     20 C          12.8254   39.7990   11.1034 C.ar    1  UNL1        0.0036
     21 C          11.6601   40.2086   10.4493 C.ar    1  UNL1       -0.0026
     22 C          10.9925   39.3289    9.5912 C.ar    1  UNL1        0.0032
     23 C          11.4968   38.0413    9.3831 C.ar    1  UNL1       -0.0026
     24 C          12.6620   37.6318   10.0372 C.ar    1  UNL1        0.0036
     25 F          15.6615   38.1706   10.7461 F       1  UNL1       -0.1659
     26 F          14.8097   38.9161   12.6945 F       1  UNL1       -0.1659
     27 F          14.4851   36.7797   12.0671 F       1  UNL1       -0.1659
     28 C          14.5871   38.0839   11.6127 C.3     1  UNL1        0.4186
@<TRIPOS>BOND
     1    28    25    1
     2    28    26    1
     3    28    27    1
     4    28    19    1
     5    20    21   ar
     6    22    23   ar
     7    18    22    1
     8    18     1    1
     9     7     9   ar
    10    11     9    1
    11    12    11    1
    12    12    13    1
    13    12    17    1
    14    13    14    1
    15    14    15    1
    16    15    16    1
    17    16    17    1
    18     8     6   ar
    19    24    19   ar
    20     1     4    1
    21     4     6    1
    22     9    10   ar
    23    19    20   ar
    24    21    22   ar
    25     6     7   ar
    26     8    10   ar
    27    23    24   ar
    28     1     2    2
    29     1     3    2
    30     4     5    1
@<TRIPOS>MOLECULE
MolPort-039-210-489 CSSS03436966926 MCULE-6897107569 PubChem-119099798
 28 30 0 0 0
SMALL
GASTEIGER

@<TRIPOS>ATOM
      1 S           9.2135   39.5440    5.3112 S.O2    1  UNL1        0.0583
      2 O           9.4846   40.8781    4.6741 O.2     1  UNL1       -0.1541
      3 O           8.7713   38.5588    4.2658 O.2     1  UNL1       -0.1541
      4 N          10.6511   38.9661    6.0825 N.pl3   1  UNL1       -0.2154
      5 H          10.8063   37.9949    6.1280 H       1  UNL1        0.1735
      6 C          11.6205   39.8439    6.6552 C.ar    1  UNL1        0.1040
      7 C          11.8796   41.1260    6.2290 C.ar    1  UNL1        0.1125
      8 C          12.4608   39.5684    7.7174 C.ar    1  UNL1        0.1374
      9 N          12.8522   41.5854    7.0357 N.ar    1  UNL1       -0.2456
     10 N          13.2097   40.6695    7.9228 N.ar    1  UNL1       -0.1662
     11 C          13.4641   42.9010    6.9410 C.3     1  UNL1        0.1569
     12 C          14.9728   42.7780    6.7987 C.3     1  UNL1        0.1395
     13 C          15.5050   43.8156    5.7939 C.3     1  UNL1        0.0317
     14 C          16.7792   44.4943    6.3033 C.3     1  UNL1        0.0051
     15 C          17.7044   43.4996    7.0090 C.3     1  UNL1        0.0322
     16 C          16.9175   42.5219    7.8972 C.3     1  UNL1        0.1421
     17 O          15.5807   42.9312    8.0579 O.3     1  UNL1       -0.3542
     18 C           7.9342   39.7209    6.5410 C.3     1  UNL1        0.1987
     19 C           8.7067   43.0629    9.1285 C.ar    1  UNL1        0.0714
     20 C           9.2105   41.7928    9.4425 C.ar    1  UNL1        0.0036
     21 C           8.9637   40.7066    8.5982 C.ar    1  UNL1       -0.0026
     22 C           8.2133   40.8829    7.4312 C.ar    1  UNL1        0.0032
     23 C           7.7043   42.1463    7.1142 C.ar    1  UNL1       -0.0026
     24 C           7.9512   43.2323    7.9585 C.ar    1  UNL1        0.0036
     25 F          10.3017   44.6084    9.9175 F       1  UNL1       -0.1659
     26 F           8.1611   45.2810    9.7098 F       1  UNL1       -0.1659
     27 F           8.7444   43.8743   11.3664 F       1  UNL1       -0.1659
     28 C           8.9809   44.2192   10.0463 C.3     1  UNL1        0.4186
@<TRIPOS>BOND
     1    28    25    1
     2    28    26    1
     3    28    27    1
     4    28    19    1
     5    20    21   ar
     6    22    23   ar
     7    18    22    1
     8    18     1    1
     9     7     9   ar
    10    11     9    1
    11    12    11    1
    12    12    13    1
    13    12    17    1
    14    13    14    1
    15    14    15    1
    16    15    16    1
    17    16    17    1
    18     8     6   ar
    19    24    19   ar
    20     1     4    1
    21     4     6    1
    22     9    10   ar
    23    19    20   ar
    24    21    22   ar
    25     6     7   ar
    26     8    10   ar
    27    23    24   ar
    28     1     2    2
    29     1     3    2
    30     4     5    1
@<TRIPOS>MOLECULE
MolPort-039-210-489 CSSS03436966926 MCULE-6897107569 PubChem-119099798
 28 30 0 0 0
SMALL
GASTEIGER

@<TRIPOS>ATOM
      1 S          11.5053   39.9982    9.7940 S.O2    1  UNL1        0.0583
      2 O          10.2501   40.5352   10.4227 O.2     1  UNL1       -0.1541
      3 O          12.7066   40.4845   10.5552 O.2     1  UNL1       -0.1541
      4 N          11.4686   38.2679    9.8110 N.pl3   1  UNL1       -0.2154
      5 H          10.5971   37.8123    9.7640 H       1  UNL1        0.1735
      6 C          12.6540   37.4760    9.8904 C.ar    1  UNL1        0.1040
      7 C          13.5680   37.3122    8.8754 C.ar    1  UNL1        0.1125
      8 C          13.0867   36.7414   10.9782 C.ar    1  UNL1        0.1374
      9 N          14.5166   36.4985    9.3712 N.ar    1  UNL1       -0.2456
     10 N          14.2420   36.1486   10.6185 N.ar    1  UNL1       -0.1662
     11 C          15.6813   36.0293    8.6379 C.3     1  UNL1        0.1569
     12 C          16.9546   36.3255    9.4143 C.3     1  UNL1        0.1395
     13 C          18.0840   35.3746    8.9787 C.3     1  UNL1        0.0317
     14 C          19.4099   36.1178    8.7959 C.3     1  UNL1        0.0051
     15 C          19.6156   37.1790    9.8798 C.3     1  UNL1        0.0322
     16 C          18.3154   37.9407   10.1848 C.3     1  UNL1        0.1421
     17 O          17.3213   37.6704    9.2260 O.3     1  UNL1       -0.3542
     18 C          11.6079   40.5533    8.1024 C.3     1  UNL1        0.1987
     19 C          15.2899   42.6461    7.3782 C.ar    1  UNL1        0.0714
     20 C          14.0845   43.1298    6.8501 C.ar    1  UNL1        0.0036
     21 C          12.8859   42.4520    7.0899 C.ar    1  UNL1       -0.0026
     22 C          12.8831   41.2863    7.8627 C.ar    1  UNL1        0.0032
     23 C          14.0824   40.7961    8.3889 C.ar    1  UNL1       -0.0026
     24 C          15.2808   41.4740    8.1490 C.ar    1  UNL1        0.0036
     25 F          16.6816   44.4466    7.9917 F       1  UNL1       -0.1659
     26 F          17.6424   42.5331    7.2894 F       1  UNL1       -0.1659
     27 F          16.5993   43.8767    5.8164 F       1  UNL1       -0.1659
     28 C          16.5687   43.3862    7.1110 C.3     1  UNL1        0.4186
@<TRIPOS>BOND
     1    28    25    1
     2    28    26    1
     3    28    27    1
     4    28    19    1
     5    20    21   ar
     6    22    23   ar
     7    18    22    1
     8    18     1    1
     9     7     9   ar
    10    11     9    1
    11    12    11    1
    12    12    13    1
    13    12    17    1
    14    13    14    1
    15    14    15    1
    16    15    16    1
    17    16    17    1
    18     8     6   ar
    19    24    19   ar
    20     1     4    1
    21     4     6    1
    22     9    10   ar
    23    19    20   ar
    24    21    22   ar
    25     6     7   ar
    26     8    10   ar
    27    23    24   ar
    28     1     2    2
    29     1     3    2
    30     4     5    1
@<TRIPOS>MOLECULE
MolPort-039-210-489 CSSS03436966926 MCULE-6897107569 PubChem-119099798
 28 30 0 0 0
SMALL
GASTEIGER

@<TRIPOS>ATOM
      1 S          11.9557   39.8119    9.4114 S.O2    1  UNL1        0.0583
      2 O          12.7828   40.8086   10.1740 O.2     1  UNL1       -0.1541
      3 O          12.5038   38.4279    9.6185 O.2     1  UNL1       -0.1541
      4 N          10.3161   39.8755    9.9623 N.pl3   1  UNL1       -0.2154
      5 H           9.8740   39.0377   10.2306 H       1  UNL1        0.1735
      6 C           9.5804   41.0964   10.0425 C.ar    1  UNL1        0.1040
      7 C           8.5249   41.4413    9.2303 C.ar    1  UNL1        0.1125
      8 C           9.7941   42.1342   10.9299 C.ar    1  UNL1        0.1374
      9 N           8.1324   42.6585    9.6453 N.ar    1  UNL1       -0.2456
     10 N           8.8796   43.0841   10.6523 N.ar    1  UNL1       -0.1662
     11 C           7.0516   43.4332    9.0570 C.3     1  UNL1        0.1569
     12 C           5.7202   42.7262    9.2551 C.3     1  UNL1        0.1395
     13 C           5.7954   41.7629   10.4534 C.3     1  UNL1        0.0317
     14 C           4.5484   41.8600   11.3361 C.3     1  UNL1        0.0051
     15 C           3.2760   42.0164   10.4995 C.3     1  UNL1        0.0322
     16 C           3.4868   42.9760    9.3168 C.3     1  UNL1        0.1421
     17 O           4.7005   43.6789    9.4318 O.3     1  UNL1       -0.3542
     18 C          11.9931   40.2129    7.6742 C.3     1  UNL1        0.1987
     19 C          14.9926   43.1867    6.8862 C.ar    1  UNL1        0.0714
     20 C          15.2731   42.1046    7.7324 C.ar    1  UNL1        0.0036
     21 C          14.2992   41.1344    7.9848 C.ar    1  UNL1       -0.0026
     22 C          13.0375   41.2372    7.3901 C.ar    1  UNL1        0.0032
     23 C          12.7497   42.3162    6.5483 C.ar    1  UNL1       -0.0026
     24 C          13.7237   43.2863    6.2960 C.ar    1  UNL1        0.0036
     25 F          16.8841   43.7832    5.6129 F       1  UNL1       -0.1659
     26 F          15.4521   45.4062    6.2398 F       1  UNL1       -0.1659
     27 F          16.8097   44.4527    7.7599 F       1  UNL1       -0.1659
     28 C          16.0499   44.2204    6.6257 C.3     1  UNL1        0.4186
@<TRIPOS>BOND
     1    28    25    1
     2    28    26    1
     3    28    27    1
     4    28    19    1
     5    20    21   ar
     6    22    23   ar
     7    18    22    1
     8    18     1    1
     9     7     9   ar
    10    11     9    1
    11    12    11    1
    12    12    13    1
    13    12    17    1
    14    13    14    1
    15    14    15    1
    16    15    16    1
    17    16    17    1
    18     8     6   ar
    19    24    19   ar
    20     1     4    1
    21     4     6    1
    22     9    10   ar
    23    19    20   ar
    24    21    22   ar
    25     6     7   ar
    26     8    10   ar
    27    23    24   ar
    28     1     2    2
    29     1     3    2
    30     4     5    1
