@<TRIPOS>MOLECULE
MolPort-000-825-472 CSSS00132827631
 39 42 0 0 0
SMALL
GASTEIGER

@<TRIPOS>ATOM
      1 C          11.3629   40.9277    7.7465 C.ar    1  UNL1        0.1382
      2 C          10.1045   41.1720    7.1837 C.ar    1  UNL1        0.0367
      3 C           8.9840   41.3856    7.9879 C.ar    1  UNL1        0.0031
      4 C           9.0989   41.3420    9.3765 C.ar    1  UNL1        0.0003
      5 C          10.3557   41.1383    9.9550 C.ar    1  UNL1        0.0023
      6 C          11.4869   40.9078    9.1623 C.ar    1  UNL1        0.0551
      7 C           7.9187   41.6371   10.2020 C.2     1  UNL1        0.0090
      8 C           6.6268   41.6240    9.8273 C.2     1  UNL1        0.1048
      9 C           6.1592   41.4955    8.4190 C.2     1  UNL1        0.2186
     10 C           3.8766   41.3200    9.1569 C.2     1  UNL1        0.3398
     11 C           5.5931   41.7849   10.8706 C.2     1  UNL1        0.2641
     12 O           7.0469   41.5896    7.3547 O.2     1  UNL1       -0.4935
     13 O           2.6919   41.0566    8.8179 O.2     1  UNL1       -0.2495
     14 O           5.9263   42.0971   12.0481 O.2     1  UNL1       -0.2690
     15 N           4.8968   41.3451    8.1531 N.am    1  UNL1       -0.1269
     16 N           4.2061   41.5898   10.5337 N.am    1  UNL1       -0.1871
     17 H           7.9632   41.6985    7.5171 H       1  UNL1        0.2935
     18 C           3.1782   41.6567   11.5436 C.ar    1  UNL1        0.0625
     19 C           2.8945   40.5401   12.3463 C.ar    1  UNL1        0.0151
     20 C           1.8989   40.6049   13.3252 C.ar    1  UNL1       -0.0030
     21 C           1.1776   41.7870   13.5110 C.ar    1  UNL1       -0.0218
     22 C           0.1192   41.8558   14.5517 C.3     1  UNL1        0.0310
     23 C           1.4517   42.9043   12.7182 C.ar    1  UNL1       -0.0030
     24 C           2.4473   42.8397   11.7393 C.ar    1  UNL1        0.0151
     25 C          13.2401   41.7367    6.2856 C.3     1  UNL1        0.2525
     26 O          12.4226   40.7209    6.8479 O.3     1  UNL1       -0.4716
     27 C          12.7843   40.6580    9.8680 C.3     1  UNL1        0.2350
     28 O          12.7331   39.4448   10.6165 O.3     1  UNL1       -0.4705
     29 C          13.1884   38.2145   10.1293 C.ar    1  UNL1        0.1391
     30 C          12.4225   37.0693   10.3655 C.ar    1  UNL1        0.0382
     31 C          12.8461   35.8265    9.8869 C.ar    1  UNL1        0.0178
     32 C          14.0442   35.7141    9.1658 C.ar    1  UNL1        0.0505
     33 C          14.8116   36.8598    8.9329 C.ar    1  UNL1        0.0178
     34 C          14.3890   38.1029    9.4108 C.ar    1  UNL1        0.0382
     35 C          15.8622   33.9802    8.6579 C.2     1  UNL1        0.2266
     36 C          16.1615   32.6426    8.0845 C.3     1  UNL1        0.0949
     37 O          16.8008   34.6718    9.1338 O.2     1  UNL1       -0.2748
     38 N          14.5104   34.4563    8.6584 N.am    1  UNL1       -0.2839
     39 H          13.8317   33.8581    8.2702 H       1  UNL1        0.1549
@<TRIPOS>BOND
     1    25    26    1
     2     1    26    1
     3     2     3   ar
     4     4     7    1
     5     4     5   ar
     6     8     9    1
     7     9    12    1
     8    10    15    1
     9    10    16   am
    10    11     8    1
    11    19    20   ar
    12    21    23   ar
    13    22    21    1
    14    24    18   ar
    15     6     1   ar
    16    27     6    1
    17    27    28    1
    18    29    28    1
    19    30    31   ar
    20    32    38    1
    21    32    33   ar
    22    36    35    1
    23    34    29   ar
    24    16    11   am
    25    16    18    1
    26    38    35   am
    27     1     2   ar
    28     3     4   ar
    29     7     8    2
    30     9    15    2
    31    10    13    2
    32    11    14    2
    33    18    19   ar
    34    20    21   ar
    35    23    24   ar
    36     5     6   ar
    37    29    30   ar
    38    31    32   ar
    39    35    37    2
    40    33    34   ar
    41    12    17    1
    42    38    39    1
@<TRIPOS>MOLECULE
MolPort-000-825-472 CSSS00132827631
 39 42 0 0 0
SMALL
GASTEIGER

@<TRIPOS>ATOM
      1 C          10.2185   40.0168    4.5856 C.ar    1  UNL1        0.1382
      2 C           9.1530   39.1098    4.5414 C.ar    1  UNL1        0.0367
      3 C           8.0869   39.2053    5.4371 C.ar    1  UNL1        0.0031
      4 C           8.0751   40.2045    6.4091 C.ar    1  UNL1        0.0003
      5 C           9.1120   41.1423    6.4418 C.ar    1  UNL1        0.0023
      6 C          10.1960   41.0516    5.5599 C.ar    1  UNL1        0.0551
      7 C           6.9095   40.3259    7.2968 C.2     1  UNL1        0.0090
      8 C           6.8996   40.6318    8.6067 C.2     1  UNL1        0.1048
      9 C           8.1161   40.7129    9.4623 C.2     1  UNL1        0.2186
     10 C           6.8116   41.5626   11.2958 C.2     1  UNL1        0.3398
     11 C           5.5963   40.8690    9.2610 C.2     1  UNL1        0.2641
     12 O           9.3493   40.2670    9.0039 O.2     1  UNL1       -0.4935
     13 O           6.8462   42.0847   12.4422 O.2     1  UNL1       -0.2495
     14 O           4.5237   40.6201    8.6424 O.2     1  UNL1       -0.2690
     15 N           8.0385   41.1554   10.6810 N.am    1  UNL1       -0.1269
     16 N           5.5588   41.3786   10.6079 N.am    1  UNL1       -0.1871
     17 H           9.4344   39.9425    8.1290 H       1  UNL1        0.2935
     18 C           4.3064   41.7004   11.2475 C.ar    1  UNL1        0.0625
     19 C           3.6407   42.8996   10.9471 C.ar    1  UNL1        0.0151
     20 C           2.4269   43.2113   11.5663 C.ar    1  UNL1       -0.0030
     21 C           1.8673   42.3267   12.4917 C.ar    1  UNL1       -0.0218
     22 C           0.5770   42.6582   13.1500 C.3     1  UNL1        0.0310
     23 C           2.5209   41.1305   12.7979 C.ar    1  UNL1       -0.0030
     24 C           3.7345   40.8186   12.1787 C.ar    1  UNL1        0.0151
     25 C          11.6924   38.5748    3.1501 C.3     1  UNL1        0.2525
     26 O          11.2424   39.8284    3.6426 O.3     1  UNL1       -0.4716
     27 C          11.2817   42.0747    5.6939 C.3     1  UNL1        0.2350
     28 O          11.5432   42.3650    7.0658 O.3     1  UNL1       -0.4705
     29 C          12.5313   41.7208    7.8190 C.ar    1  UNL1        0.1391
     30 C          12.1707   41.1073    9.0221 C.ar    1  UNL1        0.0382
     31 C          13.1324   40.4502    9.7945 C.ar    1  UNL1        0.0178
     32 C          14.4693   40.4000    9.3721 C.ar    1  UNL1        0.0505
     33 C          14.8297   41.0169    8.1699 C.ar    1  UNL1        0.0178
     34 C          13.8691   41.6741    7.3969 C.ar    1  UNL1        0.0382
     35 C          16.8945   39.9787   10.0862 C.2     1  UNL1        0.2266
     36 C          17.8013   39.1862   10.9563 C.3     1  UNL1        0.0949
     37 O          17.3812   40.8511    9.3196 O.2     1  UNL1       -0.2748
     38 N          15.4833   39.7344   10.1373 N.am    1  UNL1       -0.2839
     39 H          15.1783   39.0375   10.7624 H       1  UNL1        0.1549
@<TRIPOS>BOND
     1    25    26    1
     2     1    26    1
     3     2     3   ar
     4     4     7    1
     5     4     5   ar
     6     8     9    1
     7     9    12    1
     8    10    15    1
     9    10    16   am
    10    11     8    1
    11    19    20   ar
    12    21    23   ar
    13    22    21    1
    14    24    18   ar
    15     6     1   ar
    16    27     6    1
    17    27    28    1
    18    29    28    1
    19    30    31   ar
    20    32    38    1
    21    32    33   ar
    22    36    35    1
    23    34    29   ar
    24    16    11   am
    25    16    18    1
    26    38    35   am
    27     1     2   ar
    28     3     4   ar
    29     7     8    2
    30     9    15    2
    31    10    13    2
    32    11    14    2
    33    18    19   ar
    34    20    21   ar
    35    23    24   ar
    36     5     6   ar
    37    29    30   ar
    38    31    32   ar
    39    35    37    2
    40    33    34   ar
    41    12    17    1
    42    38    39    1
@<TRIPOS>MOLECULE
MolPort-000-825-472 CSSS00132827631
 39 42 0 0 0
SMALL
GASTEIGER

@<TRIPOS>ATOM
      1 C          13.6011   40.9763    8.8267 C.ar    1  UNL1        0.1382
      2 C          12.8251   42.0690    8.4217 C.ar    1  UNL1        0.0367
      3 C          11.5451   42.2755    8.9384 C.ar    1  UNL1        0.0031
      4 C          11.0085   41.3793    9.8615 C.ar    1  UNL1        0.0003
      5 C          11.7853   40.3047   10.3060 C.ar    1  UNL1        0.0023
      6 C          13.0654   40.0752    9.7867 C.ar    1  UNL1        0.0551
      7 C           9.6861   41.6551   10.4416 C.2     1  UNL1        0.0090
      8 C           8.4926   41.6292    9.8216 C.2     1  UNL1        0.1048
      9 C           8.3108   41.5041    8.3485 C.2     1  UNL1        0.2186
     10 C           5.9304   41.2970    8.6255 C.2     1  UNL1        0.3398
     11 C           7.2729   41.7713   10.6434 C.2     1  UNL1        0.2641
     12 O           9.3880   41.6154    7.4786 O.2     1  UNL1       -0.4935
     13 O           4.8382   41.0217    8.0605 O.2     1  UNL1       -0.2495
     14 O           7.3657   42.0800   11.8645 O.2     1  UNL1       -0.2690
     15 N           7.1266   41.3405    7.8405 N.am    1  UNL1       -0.1269
     16 N           5.9811   41.5619   10.0411 N.am    1  UNL1       -0.1871
     17 H          10.2535   41.7340    7.8174 H       1  UNL1        0.2935
     18 C           4.7749   41.6104   10.8310 C.ar    1  UNL1        0.0625
     19 C           3.9666   42.7585   10.8270 C.ar    1  UNL1        0.0151
     20 C           2.7976   42.8053   11.5918 C.ar    1  UNL1       -0.0030
     21 C           2.4257   41.7046   12.3678 C.ar    1  UNL1       -0.0218
     22 C           1.1829   41.7546   13.1809 C.3     1  UNL1        0.0310
     23 C           3.2223   40.5569   12.3790 C.ar    1  UNL1       -0.0030
     24 C           4.3913   40.5098   11.6142 C.ar    1  UNL1        0.0151
     25 C          15.9462   41.7735    8.4057 C.3     1  UNL1        0.2525
     26 O          14.8727   40.8586    8.2417 O.3     1  UNL1       -0.4716
     27 C          13.8093   38.8766   10.2902 C.3     1  UNL1        0.2350
     28 O          14.9532   38.6087    9.4813 O.3     1  UNL1       -0.4705
     29 C          15.3073   37.3285    9.0405 C.ar    1  UNL1        0.1391
     30 C          16.6389   37.0762    8.6986 C.ar    1  UNL1        0.0382
     31 C          17.0263   35.8068    8.2609 C.ar    1  UNL1        0.0178
     32 C          16.0837   34.7727    8.1587 C.ar    1  UNL1        0.0505
     33 C          14.7510   35.0269    8.4978 C.ar    1  UNL1        0.0178
     34 C          14.3626   36.2956    8.9356 C.ar    1  UNL1        0.0382
     35 C          16.2845   32.9251    6.3937 C.2     1  UNL1        0.2266
     36 C          16.7160   31.5310    6.1148 C.3     1  UNL1        0.0949
     37 O          15.7868   33.6147    5.4649 O.2     1  UNL1       -0.2748
     38 N          16.4440   33.4575    7.7147 N.am    1  UNL1       -0.2839
     39 H          16.8421   32.8583    8.3868 H       1  UNL1        0.1549
@<TRIPOS>BOND
     1    25    26    1
     2     1    26    1
     3     2     3   ar
     4     4     7    1
     5     4     5   ar
     6     8     9    1
     7     9    12    1
     8    10    15    1
     9    10    16   am
    10    11     8    1
    11    19    20   ar
    12    21    23   ar
    13    22    21    1
    14    24    18   ar
    15     6     1   ar
    16    27     6    1
    17    27    28    1
    18    29    28    1
    19    30    31   ar
    20    32    38    1
    21    32    33   ar
    22    36    35    1
    23    34    29   ar
    24    16    11   am
    25    16    18    1
    26    38    35   am
    27     1     2   ar
    28     3     4   ar
    29     7     8    2
    30     9    15    2
    31    10    13    2
    32    11    14    2
    33    18    19   ar
    34    20    21   ar
    35    23    24   ar
    36     5     6   ar
    37    29    30   ar
    38    31    32   ar
    39    35    37    2
    40    33    34   ar
    41    12    17    1
    42    38    39    1
@<TRIPOS>MOLECULE
MolPort-000-825-472 CSSS00132827631
 39 42 0 0 0
SMALL
GASTEIGER

@<TRIPOS>ATOM
      1 C          14.6469   38.8280   10.5298 C.ar    1  UNL1        0.1382
      2 C          14.2774   39.3926   11.7564 C.ar    1  UNL1        0.0367
      3 C          13.0065   39.9375   11.9459 C.ar    1  UNL1        0.0031
      4 C          12.0831   39.9429   10.9016 C.ar    1  UNL1        0.0003
      5 C          12.4225   39.3479    9.6824 C.ar    1  UNL1        0.0023
      6 C          13.6982   38.8101    9.4715 C.ar    1  UNL1        0.0551
      7 C          10.7291   40.4610   11.1460 C.2     1  UNL1        0.0090
      8 C           9.7920   40.7799   10.2352 C.2     1  UNL1        0.1048
      9 C          10.0339   40.8524    8.7672 C.2     1  UNL1        0.2186
     10 C           7.6861   41.1833    8.3623 C.2     1  UNL1        0.3398
     11 C           8.4363   41.1197   10.7143 C.2     1  UNL1        0.2641
     12 O          11.3203   40.7958    8.2463 O.2     1  UNL1       -0.4935
     13 O           6.7785   41.2316    7.4894 O.2     1  UNL1       -0.2495
     14 O           8.2218   41.2713   11.9496 O.2     1  UNL1       -0.2690
     15 N           9.0453   41.0245    7.9424 N.am    1  UNL1       -0.1269
     16 N           7.3660   41.2825    9.7638 N.am    1  UNL1       -0.1871
     17 H          12.0523   40.6724    8.8181 H       1  UNL1        0.2935
     18 C           6.0140   41.5320   10.2007 C.ar    1  UNL1        0.0625
     19 C           5.3028   42.6422    9.7177 C.ar    1  UNL1        0.0151
     20 C           3.9926   42.8837   10.1405 C.ar    1  UNL1       -0.0030
     21 C           3.3810   42.0173   11.0502 C.ar    1  UNL1       -0.0218
     22 C           1.9882   42.2743   11.4997 C.3     1  UNL1        0.0310
     23 C           4.0792   40.9094   11.5371 C.ar    1  UNL1       -0.0030
     24 C           5.3893   40.6676   11.1143 C.ar    1  UNL1        0.0151
     25 C          17.1460   39.0788   10.4626 C.3     1  UNL1        0.2525
     26 O          15.9507   38.3123   10.4438 O.3     1  UNL1       -0.4716
     27 C          13.9876   38.2302    8.1211 C.3     1  UNL1        0.2350
     28 O          13.7766   36.8195    8.1153 O.3     1  UNL1       -0.4705
     29 C          14.7986   35.8845    7.9156 C.ar    1  UNL1        0.1391
     30 C          15.6180   36.0097    6.7901 C.ar    1  UNL1        0.0382
     31 C          16.6515   35.0962    6.5651 C.ar    1  UNL1        0.0178
     32 C          16.8771   34.0436    7.4647 C.ar    1  UNL1        0.0505
     33 C          16.0547   33.9171    8.5887 C.ar    1  UNL1        0.0178
     34 C          15.0213   34.8299    8.8147 C.ar    1  UNL1        0.0382
     35 C          18.5722   32.3014    8.2778 C.2     1  UNL1        0.2266
     36 C          19.6502   31.3569    7.8864 C.3     1  UNL1        0.0949
     37 O          18.2428   32.3944    9.4897 O.2     1  UNL1       -0.2748
     38 N          17.9281   33.0878    7.2675 N.am    1  UNL1       -0.2839
     39 H          18.2393   32.9586    6.3425 H       1  UNL1        0.1549
@<TRIPOS>BOND
     1    25    26    1
     2     1    26    1
     3     2     3   ar
     4     4     7    1
     5     4     5   ar
     6     8     9    1
     7     9    12    1
     8    10    15    1
     9    10    16   am
    10    11     8    1
    11    19    20   ar
    12    21    23   ar
    13    22    21    1
    14    24    18   ar
    15     6     1   ar
    16    27     6    1
    17    27    28    1
    18    29    28    1
    19    30    31   ar
    20    32    38    1
    21    32    33   ar
    22    36    35    1
    23    34    29   ar
    24    16    11   am
    25    16    18    1
    26    38    35   am
    27     1     2   ar
    28     3     4   ar
    29     7     8    2
    30     9    15    2
    31    10    13    2
    32    11    14    2
    33    18    19   ar
    34    20    21   ar
    35    23    24   ar
    36     5     6   ar
    37    29    30   ar
    38    31    32   ar
    39    35    37    2
    40    33    34   ar
    41    12    17    1
    42    38    39    1
@<TRIPOS>MOLECULE
MolPort-000-825-472 CSSS00132827631
 39 42 0 0 0
SMALL
GASTEIGER

@<TRIPOS>ATOM
      1 C           5.4080   43.6779    8.2024 C.ar    1  UNL1        0.1382
      2 C           6.1725   44.7589    8.6572 C.ar    1  UNL1        0.0367
      3 C           7.5465   44.6327    8.8675 C.ar    1  UNL1        0.0031
      4 C           8.1813   43.4122    8.6417 C.ar    1  UNL1        0.0003
      5 C           7.4394   42.3336    8.1499 C.ar    1  UNL1        0.0023
      6 C           6.0577   42.4396    7.9476 C.ar    1  UNL1        0.0551
      7 C           9.6396   43.3227    8.8052 C.2     1  UNL1        0.0090
      8 C          10.4117   42.2241    8.7263 C.2     1  UNL1        0.1048
      9 C           9.8899   40.8310    8.6508 C.2     1  UNL1        0.2186
     10 C          12.1095   39.9836    8.2756 C.2     1  UNL1        0.3398
     11 C          11.8790   42.3955    8.7532 C.2     1  UNL1        0.2641
     12 O           8.5465   40.5530    8.8691 O.2     1  UNL1       -0.4935
     13 O          12.7977   38.9786    7.9525 O.2     1  UNL1       -0.2495
     14 O          12.3788   43.5251    9.0163 O.2     1  UNL1       -0.2690
     15 N          10.6942   39.8352    8.4306 N.am    1  UNL1       -0.1269
     16 N          12.7321   41.2664    8.4842 N.am    1  UNL1       -0.1871
     17 H           7.9437   41.2520    9.0305 H       1  UNL1        0.2935
     18 C          14.1656   41.4150    8.4199 C.ar    1  UNL1        0.0625
     19 C          14.9971   40.6815    9.2814 C.ar    1  UNL1        0.0151
     20 C          16.3860   40.8250    9.2189 C.ar    1  UNL1       -0.0030
     21 C          16.9568   41.7033    8.2942 C.ar    1  UNL1       -0.0218
     22 C          18.4335   41.8558    8.2280 C.3     1  UNL1        0.0310
     23 C          16.1391   42.4379    7.4319 C.ar    1  UNL1       -0.0030
     24 C          14.7501   42.2944    7.4942 C.ar    1  UNL1        0.0151
     25 C           3.4416   45.1576    7.6961 C.3     1  UNL1        0.2525
     26 O           4.0336   43.9105    8.0287 O.3     1  UNL1       -0.4716
     27 C           5.3369   41.2213    7.4580 C.3     1  UNL1        0.2350
     28 O           4.8620   40.4357    8.5498 O.3     1  UNL1       -0.4705
     29 C           4.1633   40.9668    9.6398 C.ar    1  UNL1        0.1391
     30 C           4.8209   41.0932   10.8668 C.ar    1  UNL1        0.0382
     31 C           4.1534   41.6257   11.9731 C.ar    1  UNL1        0.0178
     32 C           2.8167   42.0378   11.8652 C.ar    1  UNL1        0.0505
     33 C           2.1585   41.9079   10.6381 C.ar    1  UNL1        0.0178
     34 C           2.8250   41.3758    9.5313 C.ar    1  UNL1        0.0382
     35 C           0.6832   42.5454   13.1917 C.2     1  UNL1        0.2266
     36 C           0.1120   43.1763   14.4096 C.3     1  UNL1        0.0949
     37 O          -0.0865   41.9827   12.3691 O.2     1  UNL1       -0.2748
     38 N           2.0996   42.5896   12.9779 N.am    1  UNL1       -0.2839
     39 H           2.6358   43.0459   13.6660 H       1  UNL1        0.1549
@<TRIPOS>BOND
     1    25    26    1
     2     1    26    1
     3     2     3   ar
     4     4     7    1
     5     4     5   ar
     6     8     9    1
     7     9    12    1
     8    10    15    1
     9    10    16   am
    10    11     8    1
    11    19    20   ar
    12    21    23   ar
    13    22    21    1
    14    24    18   ar
    15     6     1   ar
    16    27     6    1
    17    27    28    1
    18    29    28    1
    19    30    31   ar
    20    32    38    1
    21    32    33   ar
    22    36    35    1
    23    34    29   ar
    24    16    11   am
    25    16    18    1
    26    38    35   am
    27     1     2   ar
    28     3     4   ar
    29     7     8    2
    30     9    15    2
    31    10    13    2
    32    11    14    2
    33    18    19   ar
    34    20    21   ar
    35    23    24   ar
    36     5     6   ar
    37    29    30   ar
    38    31    32   ar
    39    35    37    2
    40    33    34   ar
    41    12    17    1
    42    38    39    1
@<TRIPOS>MOLECULE
MolPort-000-825-472 CSSS00132827631
 39 42 0 0 0
SMALL
GASTEIGER

@<TRIPOS>ATOM
      1 C           6.5335   44.2779    8.6334 C.ar    1  UNL1        0.1382
      2 C           7.7208   44.8526    9.1024 C.ar    1  UNL1        0.0367
      3 C           8.7446   44.0640    9.6299 C.ar    1  UNL1        0.0031
      4 C           8.5919   42.6809    9.7138 C.ar    1  UNL1        0.0003
      5 C           7.4286   42.0874    9.2137 C.ar    1  UNL1        0.0023
      6 C           6.3862   42.8655    8.6950 C.ar    1  UNL1        0.0551
      7 C           9.7104   41.8661   10.2101 C.2     1  UNL1        0.0090
      8 C          10.4396   40.9646    9.5280 C.2     1  UNL1        0.1048
      9 C          10.1087   40.4739    8.1611 C.2     1  UNL1        0.2186
     10 C          12.1907   39.2744    8.0508 C.2     1  UNL1        0.3398
     11 C          11.6311   40.3870   10.1834 C.2     1  UNL1        0.2641
     12 O           8.8867   40.7652    7.5682 O.2     1  UNL1       -0.4935
     13 O          12.9832   38.6337    7.3096 O.2     1  UNL1       -0.2495
     14 O          11.8497   40.6093   11.4072 O.2     1  UNL1       -0.2690
     15 N          10.9393   39.7144    7.5128 N.am    1  UNL1       -0.1269
     16 N          12.5350   39.5656    9.4195 N.am    1  UNL1       -0.1871
     17 H           8.2683   41.3106    8.0132 H       1  UNL1        0.2935
     18 C          13.7506   39.0541   10.0041 C.ar    1  UNL1        0.0625
     19 C          13.7753   38.6356   11.3442 C.ar    1  UNL1        0.0151
     20 C          14.9529   38.1395   11.9107 C.ar    1  UNL1       -0.0030
     21 C          16.1170   38.0570   11.1424 C.ar    1  UNL1       -0.0218
     22 C          17.3688   37.5296   11.7448 C.3     1  UNL1        0.0310
     23 C          16.1038   38.4702    9.8079 C.ar    1  UNL1       -0.0030
     24 C          14.9263   38.9662    9.2413 C.ar    1  UNL1        0.0151
     25 C           4.4515   44.7971    7.3264 C.3     1  UNL1        0.2525
     26 O           5.5660   45.1616    8.1272 O.3     1  UNL1       -0.4716
     27 C           5.1602   42.1480    8.2200 C.3     1  UNL1        0.2350
     28 O           4.8066   41.0943    9.1142 O.3     1  UNL1       -0.4705
     29 C           4.0473   41.2852   10.2742 C.ar    1  UNL1        0.1391
     30 C           3.2126   42.4033   10.3585 C.ar    1  UNL1        0.0382
     31 C           2.4365   42.6194   11.5005 C.ar    1  UNL1        0.0178
     32 C           2.4873   41.7182   12.5745 C.ar    1  UNL1        0.0505
     33 C           3.3252   40.6016   12.4906 C.ar    1  UNL1        0.0178
     34 C           4.1014   40.3846   11.3493 C.ar    1  UNL1        0.0382
     35 C           0.3141   42.2451   13.8270 C.2     1  UNL1        0.2266
     36 C          -0.3344   42.4019   15.1545 C.3     1  UNL1        0.0949
     37 O          -0.3694   42.4119   12.7826 O.2     1  UNL1       -0.2748
     38 N           1.7051   41.9063   13.7617 N.am    1  UNL1       -0.2839
     39 H           2.1719   41.7908   14.6208 H       1  UNL1        0.1549
@<TRIPOS>BOND
     1    25    26    1
     2     1    26    1
     3     2     3   ar
     4     4     7    1
     5     4     5   ar
     6     8     9    1
     7     9    12    1
     8    10    15    1
     9    10    16   am
    10    11     8    1
    11    19    20   ar
    12    21    23   ar
    13    22    21    1
    14    24    18   ar
    15     6     1   ar
    16    27     6    1
    17    27    28    1
    18    29    28    1
    19    30    31   ar
    20    32    38    1
    21    32    33   ar
    22    36    35    1
    23    34    29   ar
    24    16    11   am
    25    16    18    1
    26    38    35   am
    27     1     2   ar
    28     3     4   ar
    29     7     8    2
    30     9    15    2
    31    10    13    2
    32    11    14    2
    33    18    19   ar
    34    20    21   ar
    35    23    24   ar
    36     5     6   ar
    37    29    30   ar
    38    31    32   ar
    39    35    37    2
    40    33    34   ar
    41    12    17    1
    42    38    39    1
@<TRIPOS>MOLECULE
MolPort-000-825-472 CSSS00132827631
 39 42 0 0 0
SMALL
GASTEIGER

@<TRIPOS>ATOM
      1 C          10.4242   40.6111    5.6758 C.ar    1  UNL1        0.1382
      2 C           9.2722   39.8210    5.7679 C.ar    1  UNL1        0.0367
      3 C           8.3998   39.9413    6.8507 C.ar    1  UNL1        0.0031
      4 C           8.6738   40.8467    7.8748 C.ar    1  UNL1        0.0003
      5 C           9.7994   41.6710    7.7788 C.ar    1  UNL1        0.0023
      6 C          10.6923   41.5525    6.7065 C.ar    1  UNL1        0.0551
      7 C           7.7057   41.0032    8.9700 C.2     1  UNL1        0.0090
      8 C           6.6115   41.7852    8.9972 C.2     1  UNL1        0.1048
      9 C           6.2827   42.8103    7.9677 C.2     1  UNL1        0.2186
     10 C           4.1367   43.1925    8.9847 C.2     1  UNL1        0.3398
     11 C           5.6846   41.6539   10.1402 C.2     1  UNL1        0.2641
     12 O           7.2071   43.1793    6.9988 O.2     1  UNL1       -0.4935
     13 O           3.0118   43.7468    8.8612 O.2     1  UNL1       -0.2495
     14 O           6.0079   40.9515   11.1388 O.2     1  UNL1       -0.2690
     15 N           5.1372   43.4224    7.9872 N.am    1  UNL1       -0.1269
     16 N           4.4163   42.3362   10.1095 N.am    1  UNL1       -0.1871
     17 H           8.0414   42.7545    6.9613 H       1  UNL1        0.2935
     18 C           3.4526   42.1642   11.1692 C.ar    1  UNL1        0.0625
     19 C           2.6357   43.2337   11.5696 C.ar    1  UNL1        0.0151
     20 C           1.7016   43.0671   12.5959 C.ar    1  UNL1       -0.0030
     21 C           1.5753   41.8293   13.2315 C.ar    1  UNL1       -0.0218
     22 C           0.5822   41.6522   14.3226 C.3     1  UNL1        0.0310
     23 C           2.3827   40.7580   12.8410 C.ar    1  UNL1       -0.0030
     24 C           3.3168   40.9245   11.8146 C.ar    1  UNL1        0.0151
     25 C          10.9988   39.4581    3.5188 C.3     1  UNL1        0.2525
     26 O          11.2365   40.4070    4.5481 O.3     1  UNL1       -0.4716
     27 C          11.8932   42.4477    6.7068 C.3     1  UNL1        0.2350
     28 O          12.7239   42.1873    7.8367 O.3     1  UNL1       -0.4705
     29 C          12.7614   40.9573    8.5033 C.ar    1  UNL1        0.1391
     30 C          12.4511   40.9177    9.8656 C.ar    1  UNL1        0.0382
     31 C          12.4732   39.7045   10.5589 C.ar    1  UNL1        0.0178
     32 C          12.8077   38.5140    9.8963 C.ar    1  UNL1        0.0505
     33 C          13.1212   38.5550    8.5340 C.ar    1  UNL1        0.0178
     34 C          13.0994   39.7674    7.8399 C.ar    1  UNL1        0.0382
     35 C          11.7697   36.3022   10.6708 C.2     1  UNL1        0.2266
     36 C          11.9849   35.0374   11.4200 C.3     1  UNL1        0.0949
     37 O          10.6515   36.5189   10.1337 O.2     1  UNL1       -0.2748
     38 N          12.8399   37.2505   10.5741 N.am    1  UNL1       -0.2839
     39 H          13.6845   37.0097   11.0188 H       1  UNL1        0.1549
@<TRIPOS>BOND
     1    25    26    1
     2     1    26    1
     3     2     3   ar
     4     4     7    1
     5     4     5   ar
     6     8     9    1
     7     9    12    1
     8    10    15    1
     9    10    16   am
    10    11     8    1
    11    19    20   ar
    12    21    23   ar
    13    22    21    1
    14    24    18   ar
    15     6     1   ar
    16    27     6    1
    17    27    28    1
    18    29    28    1
    19    30    31   ar
    20    32    38    1
    21    32    33   ar
    22    36    35    1
    23    34    29   ar
    24    16    11   am
    25    16    18    1
    26    38    35   am
    27     1     2   ar
    28     3     4   ar
    29     7     8    2
    30     9    15    2
    31    10    13    2
    32    11    14    2
    33    18    19   ar
    34    20    21   ar
    35    23    24   ar
    36     5     6   ar
    37    29    30   ar
    38    31    32   ar
    39    35    37    2
    40    33    34   ar
    41    12    17    1
    42    38    39    1
@<TRIPOS>MOLECULE
MolPort-000-825-472 CSSS00132827631
 39 42 0 0 0
SMALL
GASTEIGER

@<TRIPOS>ATOM
      1 C          13.0090   38.9711   11.4313 C.ar    1  UNL1        0.1382
      2 C          12.4614   40.0060   12.1988 C.ar    1  UNL1        0.0367
      3 C          11.2413   40.5904   11.8558 C.ar    1  UNL1        0.0031
      4 C          10.5512   40.1599   10.7236 C.ar    1  UNL1        0.0003
      5 C          11.0649   39.1009    9.9684 C.ar    1  UNL1        0.0023
      6 C          12.2947   38.5137   10.2907 C.ar    1  UNL1        0.0551
      7 C           9.2364   40.7440   10.4215 C.2     1  UNL1        0.0090
      8 C           8.9392   42.0385   10.2080 C.2     1  UNL1        0.1048
      9 C           9.8815   43.1686   10.4392 C.2     1  UNL1        0.2186
     10 C           8.3207   44.7150    9.4603 C.2     1  UNL1        0.3398
     11 C           7.5766   42.3779    9.7487 C.2     1  UNL1        0.2641
     12 O          11.0877   42.9759   11.1006 O.2     1  UNL1       -0.4935
     13 O           8.1485   45.8884    9.0343 O.2     1  UNL1       -0.2495
     14 O           6.6774   41.4913    9.7271 O.2     1  UNL1       -0.2690
     15 N           9.5692   44.3748   10.0723 N.am    1  UNL1       -0.1269
     16 N           7.2810   43.7253    9.3332 N.am    1  UNL1       -0.1871
     17 H          11.3385   42.1164   11.3768 H       1  UNL1        0.2935
     18 C           5.9861   44.0730    8.8009 C.ar    1  UNL1        0.0625
     19 C           4.8164   43.5483    9.3736 C.ar    1  UNL1        0.0151
     20 C           3.5616   43.8856    8.8583 C.ar    1  UNL1       -0.0030
     21 C           3.4645   44.7508    7.7656 C.ar    1  UNL1       -0.0218
     22 C           2.1305   45.1092    7.2179 C.3     1  UNL1        0.0310
     23 C           4.6219   45.2791    7.1881 C.ar    1  UNL1       -0.0030
     24 C           5.8767   44.9420    7.7033 C.ar    1  UNL1        0.0151
     25 C          15.5192   38.8707   11.3946 C.3     1  UNL1        0.2525
     26 O          14.2435   38.4568   11.8611 O.3     1  UNL1       -0.4716
     27 C          12.7875   37.4132    9.4021 C.3     1  UNL1        0.2350
     28 O          13.2872   37.9350    8.1722 O.3     1  UNL1       -0.4705
     29 C          13.4993   39.2984    7.9388 C.ar    1  UNL1        0.1391
     30 C          12.6059   39.9897    7.1155 C.ar    1  UNL1        0.0382
     31 C          12.7860   41.3532    6.8675 C.ar    1  UNL1        0.0178
     32 C          13.8651   42.0426    7.4406 C.ar    1  UNL1        0.0505
     33 C          14.7604   41.3495    8.2615 C.ar    1  UNL1        0.0178
     34 C          14.5812   39.9864    8.5102 C.ar    1  UNL1        0.0382
     35 C          14.5302   44.0501    5.9924 C.2     1  UNL1        0.2266
     36 C          14.7006   45.5250    5.9369 C.3     1  UNL1        0.0949
     37 O          14.7822   43.3606    4.9692 O.2     1  UNL1       -0.2748
     38 N          14.0816   43.4415    7.2099 N.am    1  UNL1       -0.2839
     39 H          13.9037   44.0462    7.9661 H       1  UNL1        0.1549
@<TRIPOS>BOND
     1    25    26    1
     2     1    26    1
     3     2     3   ar
     4     4     7    1
     5     4     5   ar
     6     8     9    1
     7     9    12    1
     8    10    15    1
     9    10    16   am
    10    11     8    1
    11    19    20   ar
    12    21    23   ar
    13    22    21    1
    14    24    18   ar
    15     6     1   ar
    16    27     6    1
    17    27    28    1
    18    29    28    1
    19    30    31   ar
    20    32    38    1
    21    32    33   ar
    22    36    35    1
    23    34    29   ar
    24    16    11   am
    25    16    18    1
    26    38    35   am
    27     1     2   ar
    28     3     4   ar
    29     7     8    2
    30     9    15    2
    31    10    13    2
    32    11    14    2
    33    18    19   ar
    34    20    21   ar
    35    23    24   ar
    36     5     6   ar
    37    29    30   ar
    38    31    32   ar
    39    35    37    2
    40    33    34   ar
    41    12    17    1
    42    38    39    1
@<TRIPOS>MOLECULE
MolPort-000-825-472 CSSS00132827631
 39 42 0 0 0
SMALL
GASTEIGER

@<TRIPOS>ATOM
      1 C          15.5337   38.1609   11.0085 C.ar    1  UNL1        0.1382
      2 C          15.9444   36.8434   11.2439 C.ar    1  UNL1        0.0367
      3 C          16.4643   36.0555   10.2159 C.ar    1  UNL1        0.0031
      4 C          16.5678   36.5678    8.9235 C.ar    1  UNL1        0.0003
      5 C          16.1987   37.8945    8.6798 C.ar    1  UNL1        0.0023
      6 C          15.6617   38.6934    9.6969 C.ar    1  UNL1        0.0551
      7 C          17.1810   35.7420    7.8731 C.2     1  UNL1        0.0090
      8 C          16.6683   34.6491    7.2797 C.2     1  UNL1        0.1048
      9 C          15.4357   33.9450    7.7313 C.2     1  UNL1        0.2186
     10 C          15.5010   32.5178    5.7962 C.2     1  UNL1        0.3398
     11 C          17.3882   34.0768    6.1234 C.2     1  UNL1        0.2641
     12 O          14.8344   34.2538    8.9447 O.2     1  UNL1       -0.4935
     13 O          14.8771   31.6604    5.1154 O.2     1  UNL1       -0.2495
     14 O          18.5369   34.5044    5.8191 O.2     1  UNL1       -0.2690
     15 N          14.9250   32.9854    7.0204 N.am    1  UNL1       -0.1269
     16 N          16.7743   33.0261    5.3523 N.am    1  UNL1       -0.1871
     17 H          15.1816   34.9414    9.4781 H       1  UNL1        0.2935
     18 C          17.4112   32.5019    4.1688 C.ar    1  UNL1        0.0625
     19 C          16.6398   32.0235    3.0975 C.ar    1  UNL1        0.0151
     20 C          17.2567   31.5161    1.9504 C.ar    1  UNL1       -0.0030
     21 C          18.6508   31.4824    1.8637 C.ar    1  UNL1       -0.0218
     22 C          19.3065   30.9428    0.6442 C.3     1  UNL1        0.0310
     23 C          19.4282   31.9561    2.9235 C.ar    1  UNL1       -0.0030
     24 C          18.8114   32.4636    4.0705 C.ar    1  UNL1        0.0151
     25 C          13.6446   39.0197   12.4250 C.3     1  UNL1        0.2525
     26 O          15.0207   38.8645   12.1108 O.3     1  UNL1       -0.4716
     27 C          15.2554   40.0891    9.3357 C.3     1  UNL1        0.2350
     28 O          14.0359   40.4493    9.9821 O.3     1  UNL1       -0.4705
     29 C          12.7846   40.4003    9.3573 C.ar    1  UNL1        0.1391
     30 C          11.6339   40.5436   10.1379 C.ar    1  UNL1        0.0382
     31 C          10.3695   40.5057    9.5438 C.ar    1  UNL1        0.0178
     32 C          10.2409   40.3225    8.1589 C.ar    1  UNL1        0.0505
     33 C          11.3925   40.1759    7.3791 C.ar    1  UNL1        0.0178
     34 C          12.6571   40.2137    7.9720 C.ar    1  UNL1        0.0382
     35 C           8.3798   39.1582    6.8361 C.2     1  UNL1        0.2266
     36 C           7.0345   39.2979    6.2212 C.3     1  UNL1        0.0949
     37 O           8.9858   38.0576    6.7515 O.2     1  UNL1       -0.2748
     38 N           8.9607   40.2793    7.5139 N.am    1  UNL1       -0.2839
     39 H           8.4255   41.1053    7.5394 H       1  UNL1        0.1549
@<TRIPOS>BOND
     1    25    26    1
     2     1    26    1
     3     2     3   ar
     4     4     7    1
     5     4     5   ar
     6     8     9    1
     7     9    12    1
     8    10    15    1
     9    10    16   am
    10    11     8    1
    11    19    20   ar
    12    21    23   ar
    13    22    21    1
    14    24    18   ar
    15     6     1   ar
    16    27     6    1
    17    27    28    1
    18    29    28    1
    19    30    31   ar
    20    32    38    1
    21    32    33   ar
    22    36    35    1
    23    34    29   ar
    24    16    11   am
    25    16    18    1
    26    38    35   am
    27     1     2   ar
    28     3     4   ar
    29     7     8    2
    30     9    15    2
    31    10    13    2
    32    11    14    2
    33    18    19   ar
    34    20    21   ar
    35    23    24   ar
    36     5     6   ar
    37    29    30   ar
    38    31    32   ar
    39    35    37    2
    40    33    34   ar
    41    12    17    1
    42    38    39    1
@<TRIPOS>MOLECULE
MolPort-000-825-472 CSSS00132827631
 39 42 0 0 0
SMALL
GASTEIGER

@<TRIPOS>ATOM
      1 C           6.0277   41.5536   11.2220 C.ar    1  UNL1        0.1382
      2 C           7.1639   41.4108   12.0273 C.ar    1  UNL1        0.0367
      3 C           8.4313   41.7534   11.5535 C.ar    1  UNL1        0.0031
      4 C           8.5883   42.2316   10.2535 C.ar    1  UNL1        0.0003
      5 C           7.4592   42.4173    9.4497 C.ar    1  UNL1        0.0023
      6 C           6.1826   42.0648    9.9048 C.ar    1  UNL1        0.0551
      7 C           9.9232   42.6492    9.8008 C.2     1  UNL1        0.0090
      8 C          10.9733   41.8650    9.4976 C.2     1  UNL1        0.1048
      9 C          11.0350   40.4003    9.7613 C.2     1  UNL1        0.2186
     10 C          13.1158   40.2382    8.5656 C.2     1  UNL1        0.3398
     11 C          12.1670   42.4942    8.8959 C.2     1  UNL1        0.2641
     12 O          10.0752   39.7687   10.5419 O.2     1  UNL1       -0.4935
     13 O          13.9711   39.4575    8.0687 O.2     1  UNL1       -0.2495
     14 O          12.2545   43.7526    8.8329 O.2     1  UNL1       -0.2690
     15 N          12.0226   39.6885    9.3083 N.am    1  UNL1       -0.1269
     16 N          13.2297   41.6639    8.3894 N.am    1  UNL1       -0.1871
     17 H           9.3519   40.2577   10.8820 H       1  UNL1        0.2935
     18 C          14.3709   42.2406    7.7212 C.ar    1  UNL1        0.0625
     19 C          14.2085   42.9576    6.5249 C.ar    1  UNL1        0.0151
     20 C          15.3140   43.5168    5.8777 C.ar    1  UNL1       -0.0030
     21 C          16.5923   43.3644    6.4206 C.ar    1  UNL1       -0.0218
     22 C          17.7675   43.9589    5.7323 C.3     1  UNL1        0.0310
     23 C          16.7655   42.6533    7.6106 C.ar    1  UNL1       -0.0030
     24 C          15.6601   42.0941    8.2580 C.ar    1  UNL1        0.0151
     25 C           3.8906   40.2327   11.2482 C.3     1  UNL1        0.2525
     26 O           4.8018   41.1752   11.7940 O.3     1  UNL1       -0.4716
     27 C           5.0358   42.2594    8.9611 C.3     1  UNL1        0.2350
     28 O           5.4989   42.4267    7.6223 O.3     1  UNL1       -0.4705
     29 C           6.4777   41.6172    7.0347 C.ar    1  UNL1        0.1391
     30 C           7.6741   42.2033    6.6118 C.ar    1  UNL1        0.0382
     31 C           8.6742   41.4217    6.0270 C.ar    1  UNL1        0.0178
     32 C           8.4884   40.0416    5.8569 C.ar    1  UNL1        0.0505
     33 C           7.2897   39.4566    6.2773 C.ar    1  UNL1        0.0178
     34 C           6.2892   40.2371    6.8621 C.ar    1  UNL1        0.0382
     35 C           9.6420   38.9079    3.8686 C.2     1  UNL1        0.2266
     36 C          10.7474   38.0164    3.4317 C.3     1  UNL1        0.0949
     37 O           8.8567   39.3849    3.0075 O.2     1  UNL1       -0.2748
     38 N           9.4920   39.2075    5.2620 N.am    1  UNL1       -0.2839
     39 H          10.1455   38.7984    5.8743 H       1  UNL1        0.1549
@<TRIPOS>BOND
     1    25    26    1
     2     1    26    1
     3     2     3   ar
     4     4     7    1
     5     4     5   ar
     6     8     9    1
     7     9    12    1
     8    10    15    1
     9    10    16   am
    10    11     8    1
    11    19    20   ar
    12    21    23   ar
    13    22    21    1
    14    24    18   ar
    15     6     1   ar
    16    27     6    1
    17    27    28    1
    18    29    28    1
    19    30    31   ar
    20    32    38    1
    21    32    33   ar
    22    36    35    1
    23    34    29   ar
    24    16    11   am
    25    16    18    1
    26    38    35   am
    27     1     2   ar
    28     3     4   ar
    29     7     8    2
    30     9    15    2
    31    10    13    2
    32    11    14    2
    33    18    19   ar
    34    20    21   ar
    35    23    24   ar
    36     5     6   ar
    37    29    30   ar
    38    31    32   ar
    39    35    37    2
    40    33    34   ar
    41    12    17    1
    42    38    39    1
