@<TRIPOS>MOLECULE
MolPort-007-714-565 ChemDiv-E002-1916 MCULE-8688551559 PubChem-22510860 ZINC000006780263
 28 30 0 0 0
SMALL
GASTEIGER

@<TRIPOS>ATOM
      1 C           1.8191   42.2322   12.1510 C.ar    1  UNL1        0.1905
      2 C           3.3833   41.3777   10.5475 C.ar    1  UNL1        0.1904
      3 N           1.3040   42.1249   10.9037 N.ar    1  UNL1       -0.1239
      4 N           2.1706   41.6439   10.0141 N.ar    1  UNL1       -0.1240
      5 S           3.4375   41.7416   12.1880 S.2     1  UNL1       -0.0151
      6 C           5.8093   41.4229    9.7989 C.2     1  UNL1        0.3096
      7 N           4.4938   40.8598    9.8086 N.am    1  UNL1       -0.2468
      8 N           6.8243   40.7911    9.0086 N.am    1  UNL1       -0.2679
      9 O           6.0670   42.4560   10.4739 O.2     1  UNL1       -0.2521
     10 H           4.3409   40.0535    9.2647 H       1  UNL1        0.1584
     11 H           6.5552   39.9885    8.5060 H       1  UNL1        0.1564
     12 C           8.1909   41.2049    8.8727 C.ar    1  UNL1        0.0538
     13 C           8.6985   41.4393    7.5905 C.ar    1  UNL1        0.0145
     14 C          10.0252   41.8438    7.4173 C.ar    1  UNL1       -0.0008
     15 C          10.8566   42.0175    8.5274 C.ar    1  UNL1        0.0057
     16 C          10.3563   41.7848    9.8161 C.ar    1  UNL1        0.1374
     17 C           9.0289   41.3804    9.9846 C.ar    1  UNL1        0.0440
     18 C          12.2669   42.4486    8.3248 C.3     1  UNL1        0.0334
     19 F          11.1476   41.9479   10.9056 F       1  UNL1       -0.2045
     20 N           1.0839   42.7844   13.2599 N.pl3   1  UNL1       -0.2659
     21 C          -0.1132   42.1721   13.7820 C.ar    1  UNL1        0.0531
     22 C          -1.1597   41.7886   12.9273 C.ar    1  UNL1        0.0149
     23 C          -2.3283   41.2216   13.4435 C.ar    1  UNL1        0.0013
     24 C          -2.4667   41.0399   14.8214 C.ar    1  UNL1        0.0001
     25 C          -1.4383   41.4281   15.6834 C.ar    1  UNL1        0.0013
     26 C          -0.2696   41.9947   15.1667 C.ar    1  UNL1        0.0149
     27 C           1.5580   44.0324   13.8516 C.3     1  UNL1        0.0975
     28 C           0.4751   44.6396   14.7239 C.3     1  UNL1        0.0236
@<TRIPOS>BOND
     1     1    20    1
     2     1     5   ar
     3    27    20    1
     4    27    28    1
     5    22    23   ar
     6    24    25   ar
     7    26    21   ar
     8     2     7    1
     9     2     5   ar
    10     6     8   am
    11    13    14   ar
    12    15    16   ar
    13    16    19    1
    14    17    12   ar
    15    18    15    1
    16    20    21    1
    17     3     4   ar
    18     7     6   am
    19     8    12    1
    20     1     3   ar
    21    21    22   ar
    22    23    24   ar
    23    25    26   ar
    24     2     4   ar
    25     6     9    2
    26    12    13   ar
    27    14    15   ar
    28    16    17   ar
    29     7    10    1
    30     8    11    1
@<TRIPOS>MOLECULE
MolPort-007-714-565 ChemDiv-E002-1916 MCULE-8688551559 PubChem-22510860 ZINC000006780263
 28 30 0 0 0
SMALL
GASTEIGER

@<TRIPOS>ATOM
      1 C           6.8212   42.2215    7.4394 C.ar    1  UNL1        0.1905
      2 C           8.9052   41.8073    6.3287 C.ar    1  UNL1        0.1904
      3 N           6.6992   41.4302    6.3479 N.ar    1  UNL1       -0.1239
      4 N           7.8576   41.1943    5.7346 N.ar    1  UNL1       -0.1240
      5 S           8.4278   42.6965    7.6732 S.2     1  UNL1       -0.0151
      6 C          11.4093   42.1065    6.6245 C.2     1  UNL1        0.3096
      7 N          10.2571   41.7229    5.8676 N.am    1  UNL1       -0.2468
      8 N          12.7050   41.9634    6.0288 N.am    1  UNL1       -0.2679
      9 O          11.2834   42.5620    7.7933 O.2     1  UNL1       -0.2521
     10 H          10.4060   41.3738    4.9592 H       1  UNL1        0.1584
     11 H          12.7314   41.6018    5.1135 H       1  UNL1        0.1564
     12 C          13.9673   42.2915    6.6256 C.ar    1  UNL1        0.0538
     13 C          14.4558   41.4801    7.6550 C.ar    1  UNL1        0.0145
     14 C          15.6820   41.7673    8.2615 C.ar    1  UNL1       -0.0008
     15 C          16.4309   42.8705    7.8424 C.ar    1  UNL1        0.0057
     16 C          15.9490   43.6890    6.8114 C.ar    1  UNL1        0.1374
     17 C          14.7223   43.3981    6.2078 C.ar    1  UNL1        0.0440
     18 C          17.7346   43.1618    8.4993 C.3     1  UNL1        0.0334
     19 F          16.6613   44.7641    6.3910 F       1  UNL1       -0.2045
     20 N           5.6942   42.6585    8.2231 N.pl3   1  UNL1       -0.2659
     21 C           5.1522   41.8787    9.3087 C.ar    1  UNL1        0.0531
     22 C           5.8620   41.7234   10.5106 C.ar    1  UNL1        0.0149
     23 C           5.3429   40.9430   11.5476 C.ar    1  UNL1        0.0013
     24 C           4.1118   40.3022   11.3904 C.ar    1  UNL1        0.0001
     25 C           3.4014   40.4389   10.1954 C.ar    1  UNL1        0.0013
     26 C           3.9207   41.2196    9.1588 C.ar    1  UNL1        0.0149
     27 C           5.0606   43.9275    7.8760 C.3     1  UNL1        0.0975
     28 C           3.7671   44.0931    8.6519 C.3     1  UNL1        0.0236
@<TRIPOS>BOND
     1     1    20    1
     2     1     5   ar
     3    27    20    1
     4    27    28    1
     5    22    23   ar
     6    24    25   ar
     7    26    21   ar
     8     2     7    1
     9     2     5   ar
    10     6     8   am
    11    13    14   ar
    12    15    16   ar
    13    16    19    1
    14    17    12   ar
    15    18    15    1
    16    20    21    1
    17     3     4   ar
    18     7     6   am
    19     8    12    1
    20     1     3   ar
    21    21    22   ar
    22    23    24   ar
    23    25    26   ar
    24     2     4   ar
    25     6     9    2
    26    12    13   ar
    27    14    15   ar
    28    16    17   ar
    29     7    10    1
    30     8    11    1
@<TRIPOS>MOLECULE
MolPort-007-714-565 ChemDiv-E002-1916 MCULE-8688551559 PubChem-22510860 ZINC000006780263
 28 30 0 0 0
SMALL
GASTEIGER

@<TRIPOS>ATOM
      1 C          -0.4015   44.4938   15.7991 C.ar    1  UNL1        0.1905
      2 C           0.5320   42.9956   14.1768 C.ar    1  UNL1        0.1904
      3 N          -0.8722   44.6986   14.5466 N.ar    1  UNL1       -0.1239
      4 N          -0.3590   43.8621   13.6463 N.ar    1  UNL1       -0.1240
      5 S           0.7319   43.2384   15.8283 S.2     1  UNL1       -0.0151
      6 C           2.3537   42.2470   12.5740 C.2     1  UNL1        0.3096
      7 N           1.2321   41.9980   13.4271 N.am    1  UNL1       -0.2468
      8 N           2.9550   41.1433   11.8852 N.am    1  UNL1       -0.2679
      9 O           2.8018   43.4169   12.4329 O.2     1  UNL1       -0.2521
     10 H           0.9177   41.0682   13.5042 H       1  UNL1        0.1584
     11 H           2.5552   40.2570   12.0401 H       1  UNL1        0.1564
     12 C           4.0777   41.1939   10.9940 C.ar    1  UNL1        0.0538
     13 C           3.8625   40.9819    9.6283 C.ar    1  UNL1        0.0145
     14 C           4.9312   41.0233    8.7283 C.ar    1  UNL1       -0.0008
     15 C           6.2264   41.2776    9.1881 C.ar    1  UNL1        0.0057
     16 C           6.4513   41.4913   10.5552 C.ar    1  UNL1        0.1374
     17 C           5.3795   41.4489   11.4516 C.ar    1  UNL1        0.0440
     18 C           7.3530   41.3181    8.2161 C.3     1  UNL1        0.0334
     19 F           7.7010   41.7394   11.0206 F       1  UNL1       -0.2045
     20 N          -0.7700   45.3181   16.9216 N.pl3   1  UNL1       -0.2659
     21 C           0.2050   45.9498   17.7764 C.ar    1  UNL1        0.0531
     22 C           0.3065   45.6046   19.1340 C.ar    1  UNL1        0.0149
     23 C           1.2348   46.2413   19.9625 C.ar    1  UNL1        0.0013
     24 C           2.0662   47.2367   19.4440 C.ar    1  UNL1        0.0001
     25 C           1.9671   47.5979   18.0983 C.ar    1  UNL1        0.0013
     26 C           1.0388   46.9607   17.2701 C.ar    1  UNL1        0.0149
     27 C          -2.1895   45.4883   17.2185 C.3     1  UNL1        0.0975
     28 C          -2.3859   45.7272   18.7041 C.3     1  UNL1        0.0236
@<TRIPOS>BOND
     1     1    20    1
     2     1     5   ar
     3    27    20    1
     4    27    28    1
     5    22    23   ar
     6    24    25   ar
     7    26    21   ar
     8     2     7    1
     9     2     5   ar
    10     6     8   am
    11    13    14   ar
    12    15    16   ar
    13    16    19    1
    14    17    12   ar
    15    18    15    1
    16    20    21    1
    17     3     4   ar
    18     7     6   am
    19     8    12    1
    20     1     3   ar
    21    21    22   ar
    22    23    24   ar
    23    25    26   ar
    24     2     4   ar
    25     6     9    2
    26    12    13   ar
    27    14    15   ar
    28    16    17   ar
    29     7    10    1
    30     8    11    1
@<TRIPOS>MOLECULE
MolPort-007-714-565 ChemDiv-E002-1916 MCULE-8688551559 PubChem-22510860 ZINC000006780263
 28 30 0 0 0
SMALL
GASTEIGER

@<TRIPOS>ATOM
      1 C           6.0983   42.0803    9.3597 C.ar    1  UNL1        0.1905
      2 C           4.0660   42.4444   10.5783 C.ar    1  UNL1        0.1904
      3 N           6.0413   41.3937   10.5249 N.ar    1  UNL1       -0.1239
      4 N           4.9096   41.5904   11.1989 N.ar    1  UNL1       -0.1240
      5 S           4.7053   43.0123    9.1308 S.2     1  UNL1       -0.0151
      6 C           2.1776   42.2942   12.2693 C.2     1  UNL1        0.3096
      7 N           2.7874   42.8311   11.0913 N.am    1  UNL1       -0.2468
      8 N           0.8885   42.7819   12.6623 N.am    1  UNL1       -0.2679
      9 O           2.7661   41.4084   12.9463 O.2     1  UNL1       -0.2521
     10 H           2.2886   43.5199   10.5954 H       1  UNL1        0.1584
     11 H           0.4856   43.4732   12.0887 H       1  UNL1        0.1564
     12 C           0.1235   42.3689   13.8031 C.ar    1  UNL1        0.0538
     13 C           0.3375   43.0139   15.0257 C.ar    1  UNL1        0.0145
     14 C          -0.3885   42.6398   16.1601 C.ar    1  UNL1       -0.0008
     15 C          -1.3362   41.6155   16.0806 C.ar    1  UNL1        0.0057
     16 C          -1.5572   40.9637   14.8593 C.ar    1  UNL1        0.1374
     17 C          -0.8289   41.3411   13.7274 C.ar    1  UNL1        0.0440
     18 C          -2.1004   41.2298   17.2984 C.3     1  UNL1        0.0334
     19 F          -2.4725   39.9675   14.7623 F       1  UNL1       -0.2045
     20 N           7.2512   42.0680    8.4960 N.pl3   1  UNL1       -0.2659
     21 C           7.7431   40.8643    7.8719 C.ar    1  UNL1        0.0531
     22 C           8.9619   40.2909    8.2698 C.ar    1  UNL1        0.0149
     23 C           9.4456   39.1402    7.6409 C.ar    1  UNL1        0.0013
     24 C           8.7196   38.5552    6.6009 C.ar    1  UNL1        0.0001
     25 C           7.5119   39.1224    6.1875 C.ar    1  UNL1        0.0013
     26 C           7.0284   40.2730    6.8169 C.ar    1  UNL1        0.0149
     27 C           7.9642   43.3232    8.2760 C.3     1  UNL1        0.0975
     28 C           8.5152   43.8464    9.5894 C.3     1  UNL1        0.0236
@<TRIPOS>BOND
     1     1    20    1
     2     1     5   ar
     3    27    20    1
     4    27    28    1
     5    22    23   ar
     6    24    25   ar
     7    26    21   ar
     8     2     7    1
     9     2     5   ar
    10     6     8   am
    11    13    14   ar
    12    15    16   ar
    13    16    19    1
    14    17    12   ar
    15    18    15    1
    16    20    21    1
    17     3     4   ar
    18     7     6   am
    19     8    12    1
    20     1     3   ar
    21    21    22   ar
    22    23    24   ar
    23    25    26   ar
    24     2     4   ar
    25     6     9    2
    26    12    13   ar
    27    14    15   ar
    28    16    17   ar
    29     7    10    1
    30     8    11    1
@<TRIPOS>MOLECULE
MolPort-007-714-565 ChemDiv-E002-1916 MCULE-8688551559 PubChem-22510860 ZINC000006780263
 28 30 0 0 0
SMALL
GASTEIGER

@<TRIPOS>ATOM
      1 C          -0.8585   43.3591   14.7549 C.ar    1  UNL1        0.1905
      2 C           0.9427   42.3100   13.5706 C.ar    1  UNL1        0.1904
      3 N          -1.2308   42.8430   13.5602 N.ar    1  UNL1       -0.1239
      4 N          -0.2320   42.2541   12.9050 N.ar    1  UNL1       -0.1240
      5 S           0.7918   43.1179   15.0371 S.2     1  UNL1       -0.0151
      6 C           2.8617   42.1982   11.9114 C.2     1  UNL1        0.3096
      7 N           2.1717   41.7601   13.0860 N.am    1  UNL1       -0.2468
      8 N           4.0880   41.5505   11.5498 N.am    1  UNL1       -0.2679
      9 O           2.3964   43.1366   11.2096 O.2     1  UNL1       -0.2521
     10 H           2.5737   41.0234   13.6006 H       1  UNL1        0.1584
     11 H           4.3942   40.8255   12.1413 H       1  UNL1        0.1564
     12 C           4.9162   41.8472   10.4170 C.ar    1  UNL1        0.0538
     13 C           4.5266   42.8726    9.5490 C.ar    1  UNL1        0.0145
     14 C           5.3073   43.1914    8.4342 C.ar    1  UNL1       -0.0008
     15 C           6.4864   42.4858    8.1782 C.ar    1  UNL1        0.0057
     16 C           6.8845   41.4567    9.0427 C.ar    1  UNL1        0.1374
     17 C           6.1006   41.1412   10.1563 C.ar    1  UNL1        0.0440
     18 C           7.3057   42.8383    6.9865 C.3     1  UNL1        0.0334
     19 F           8.0253   40.7605    8.8109 F       1  UNL1       -0.2045
     20 N          -1.7573   44.0940   15.6078 N.pl3   1  UNL1       -0.2659
     21 C          -2.0218   43.7112   16.9731 C.ar    1  UNL1        0.0531
     22 C          -2.1864   44.6809   17.9758 C.ar    1  UNL1        0.0149
     23 C          -2.4145   44.3016   19.3016 C.ar    1  UNL1        0.0013
     24 C          -2.4719   42.9479   19.6406 C.ar    1  UNL1        0.0001
     25 C          -2.2979   41.9735   18.6550 C.ar    1  UNL1        0.0013
     26 C          -2.0701   42.3532   17.3292 C.ar    1  UNL1        0.0149
     27 C          -2.4494   45.2521   15.0492 C.3     1  UNL1        0.0975
     28 C          -1.5736   46.4861   15.1610 C.3     1  UNL1        0.0236
@<TRIPOS>BOND
     1     1    20    1
     2     1     5   ar
     3    27    20    1
     4    27    28    1
     5    22    23   ar
     6    24    25   ar
     7    26    21   ar
     8     2     7    1
     9     2     5   ar
    10     6     8   am
    11    13    14   ar
    12    15    16   ar
    13    16    19    1
    14    17    12   ar
    15    18    15    1
    16    20    21    1
    17     3     4   ar
    18     7     6   am
    19     8    12    1
    20     1     3   ar
    21    21    22   ar
    22    23    24   ar
    23    25    26   ar
    24     2     4   ar
    25     6     9    2
    26    12    13   ar
    27    14    15   ar
    28    16    17   ar
    29     7    10    1
    30     8    11    1
@<TRIPOS>MOLECULE
MolPort-007-714-565 ChemDiv-E002-1916 MCULE-8688551559 PubChem-22510860 ZINC000006780263
 28 30 0 0 0
SMALL
GASTEIGER

@<TRIPOS>ATOM
      1 C           1.2904   42.2615   12.5559 C.ar    1  UNL1        0.1905
      2 C           3.1491   42.4092   11.0487 C.ar    1  UNL1        0.1904
      3 N           0.9707   41.9501   11.2779 N.ar    1  UNL1       -0.1239
      4 N           2.0044   42.0255   10.4416 N.ar    1  UNL1       -0.1240
      5 S           2.9226   42.6843   12.6917 S.2     1  UNL1       -0.0151
      6 C           5.6333   41.9612   10.7733 C.2     1  UNL1        0.3096
      7 N           4.4022   42.5743   10.3780 N.am    1  UNL1       -0.2468
      8 N           6.8121   42.2195   10.0001 N.am    1  UNL1       -0.2679
      9 O           5.6766   41.2087   11.7839 O.2     1  UNL1       -0.2521
     10 H           4.4187   43.1546    9.5829 H       1  UNL1        0.1584
     11 H           6.7077   42.8163    9.2242 H       1  UNL1        0.1564
     12 C           8.1277   41.7001   10.2377 C.ar    1  UNL1        0.0538
     13 C           8.8653   41.2146    9.1529 C.ar    1  UNL1        0.0145
     14 C          10.1510   40.7005    9.3442 C.ar    1  UNL1       -0.0008
     15 C          10.7105   40.6680   10.6246 C.ar    1  UNL1        0.0057
     16 C           9.9785   41.1525   11.7176 C.ar    1  UNL1        0.1374
     17 C           8.6930   41.6656   11.5217 C.ar    1  UNL1        0.0440
     18 C          12.0808   40.1171   10.8104 C.3     1  UNL1        0.0334
     19 F          10.5043   41.1292   12.9677 F       1  UNL1       -0.2045
     20 N           0.3203   42.3068   13.6199 N.pl3   1  UNL1       -0.2659
     21 C           0.2992   43.3560   14.6094 C.ar    1  UNL1        0.0531
     22 C           0.1429   44.7001   14.2332 C.ar    1  UNL1        0.0149
     23 C           0.1517   45.7138   15.1955 C.ar    1  UNL1        0.0013
     24 C           0.3256   45.3949   16.5442 C.ar    1  UNL1        0.0001
     25 C           0.4941   44.0631   16.9304 C.ar    1  UNL1        0.0013
     26 C           0.4849   43.0496   15.9678 C.ar    1  UNL1        0.0149
     27 C          -0.6563   41.2251   13.7122 C.3     1  UNL1        0.0975
     28 C          -2.0524   41.7606   13.4539 C.3     1  UNL1        0.0236
@<TRIPOS>BOND
     1     1    20    1
     2     1     5   ar
     3    27    20    1
     4    27    28    1
     5    22    23   ar
     6    24    25   ar
     7    26    21   ar
     8     2     7    1
     9     2     5   ar
    10     6     8   am
    11    13    14   ar
    12    15    16   ar
    13    16    19    1
    14    17    12   ar
    15    18    15    1
    16    20    21    1
    17     3     4   ar
    18     7     6   am
    19     8    12    1
    20     1     3   ar
    21    21    22   ar
    22    23    24   ar
    23    25    26   ar
    24     2     4   ar
    25     6     9    2
    26    12    13   ar
    27    14    15   ar
    28    16    17   ar
    29     7    10    1
    30     8    11    1
@<TRIPOS>MOLECULE
MolPort-007-714-565 ChemDiv-E002-1916 MCULE-8688551559 PubChem-22510860 ZINC000006780263
 28 30 0 0 0
SMALL
GASTEIGER

@<TRIPOS>ATOM
      1 C          12.9919   41.9260    7.4829 C.ar    1  UNL1        0.1905
      2 C          11.2037   41.1803    8.8951 C.ar    1  UNL1        0.1904
      3 N          12.6302   40.6412    7.2571 N.ar    1  UNL1       -0.1239
      4 N          11.6323   40.2288    8.0367 N.ar    1  UNL1       -0.1240
      5 S          12.0696   42.6112    8.7243 S.2     1  UNL1       -0.0151
      6 C           8.7864   41.3840    9.6455 C.2     1  UNL1        0.3096
      7 N          10.1491   40.9950    9.8443 N.am    1  UNL1       -0.2468
      8 N           7.8377   41.1319   10.6898 N.am    1  UNL1       -0.2679
      9 O           8.4304   41.9382    8.5705 O.2     1  UNL1       -0.2521
     10 H          10.3788   40.5667   10.7004 H       1  UNL1        0.1584
     11 H           8.1827   40.6964   11.5025 H       1  UNL1        0.1564
     12 C           6.4386   41.4474   10.6757 C.ar    1  UNL1        0.0538
     13 C           5.6098   40.8736   11.6455 C.ar    1  UNL1        0.0145
     14 C           4.2411   41.1567   11.6645 C.ar    1  UNL1       -0.0008
     15 C           3.6893   42.0177   10.7118 C.ar    1  UNL1        0.0057
     16 C           4.5124   42.5972    9.7362 C.ar    1  UNL1        0.1374
     17 C           5.8806   42.3113    9.7209 C.ar    1  UNL1        0.0440
     18 C           2.2297   42.3082   10.7465 C.3     1  UNL1        0.0334
     19 F           3.9954   43.4352    8.8032 F       1  UNL1       -0.2045
     20 N          14.0874   42.5655    6.8001 N.pl3   1  UNL1       -0.2659
     21 C          15.4110   42.6552    7.3661 C.ar    1  UNL1        0.0531
     22 C          16.3232   43.6250    6.9188 C.ar    1  UNL1        0.0149
     23 C          17.6136   43.6876    7.4523 C.ar    1  UNL1        0.0013
     24 C          18.0087   42.7750    8.4332 C.ar    1  UNL1        0.0001
     25 C          17.1150   41.7979    8.8781 C.ar    1  UNL1        0.0013
     26 C          15.8246   41.7360    8.3445 C.ar    1  UNL1        0.0149
     27 C          13.8302   43.1740    5.4979 C.3     1  UNL1        0.0975
     28 C          14.7139   44.3930    5.3090 C.3     1  UNL1        0.0236
@<TRIPOS>BOND
     1     1    20    1
     2     1     5   ar
     3    27    20    1
     4    27    28    1
     5    22    23   ar
     6    24    25   ar
     7    26    21   ar
     8     2     7    1
     9     2     5   ar
    10     6     8   am
    11    13    14   ar
    12    15    16   ar
    13    16    19    1
    14    17    12   ar
    15    18    15    1
    16    20    21    1
    17     3     4   ar
    18     7     6   am
    19     8    12    1
    20     1     3   ar
    21    21    22   ar
    22    23    24   ar
    23    25    26   ar
    24     2     4   ar
    25     6     9    2
    26    12    13   ar
    27    14    15   ar
    28    16    17   ar
    29     7    10    1
    30     8    11    1
@<TRIPOS>MOLECULE
MolPort-007-714-565 ChemDiv-E002-1916 MCULE-8688551559 PubChem-22510860 ZINC000006780263
 28 30 0 0 0
SMALL
GASTEIGER

@<TRIPOS>ATOM
      1 C           7.8095   41.4560    9.4970 C.ar    1  UNL1        0.1905
      2 C           9.4199   41.5307    7.7224 C.ar    1  UNL1        0.1904
      3 N           7.5593   40.5664    8.5078 N.ar    1  UNL1       -0.1239
      4 N           8.4574   40.6030    7.5251 N.ar    1  UNL1       -0.1240
      5 S           9.1906   42.3725    9.1595 S.2     1  UNL1       -0.0151
      6 C          11.8131   42.1983    7.1981 C.2     1  UNL1        0.3096
      7 N          10.4992   41.7791    6.8164 N.am    1  UNL1       -0.2468
      8 N          12.7949   42.4074    6.1752 N.am    1  UNL1       -0.2679
      9 O          12.0981   42.3799    8.4127 O.2     1  UNL1       -0.2521
     10 H          10.3243   41.6517    5.8560 H       1  UNL1        0.1584
     11 H          12.5055   42.2478    5.2478 H       1  UNL1        0.1564
     12 C          14.1547   42.8246    6.3602 C.ar    1  UNL1        0.0538
     13 C          14.6652   43.8367    5.5407 C.ar    1  UNL1        0.0145
     14 C          15.9855   44.2705    5.6905 C.ar    1  UNL1       -0.0008
     15 C          16.8074   43.6943    6.6632 C.ar    1  UNL1        0.0057
     16 C          16.3041   42.6795    7.4889 C.ar    1  UNL1        0.1374
     17 C          14.9831   42.2487    7.3355 C.ar    1  UNL1        0.0440
     18 C          18.2110   44.1682    6.8091 C.3     1  UNL1        0.0334
     19 F          17.0863   42.1081    8.4384 F       1  UNL1       -0.2045
     20 N           6.9390   41.6360   10.6306 N.pl3   1  UNL1       -0.2659
     21 C           5.5021   41.6702   10.5106 C.ar    1  UNL1        0.0531
     22 C           4.6921   40.8311   11.2932 C.ar    1  UNL1        0.0149
     23 C           3.3017   40.8499   11.1510 C.ar    1  UNL1        0.0013
     24 C           2.7066   41.7023   10.2181 C.ar    1  UNL1        0.0001
     25 C           3.5016   42.5332    9.4251 C.ar    1  UNL1        0.0013
     26 C           4.8920   42.5143    9.5679 C.ar    1  UNL1        0.0149
     27 C           7.5455   41.8240   11.9456 C.3     1  UNL1        0.0975
     28 C           8.8398   41.0375   12.0394 C.3     1  UNL1        0.0236
@<TRIPOS>BOND
     1     1    20    1
     2     1     5   ar
     3    27    20    1
     4    27    28    1
     5    22    23   ar
     6    24    25   ar
     7    26    21   ar
     8     2     7    1
     9     2     5   ar
    10     6     8   am
    11    13    14   ar
    12    15    16   ar
    13    16    19    1
    14    17    12   ar
    15    18    15    1
    16    20    21    1
    17     3     4   ar
    18     7     6   am
    19     8    12    1
    20     1     3   ar
    21    21    22   ar
    22    23    24   ar
    23    25    26   ar
    24     2     4   ar
    25     6     9    2
    26    12    13   ar
    27    14    15   ar
    28    16    17   ar
    29     7    10    1
    30     8    11    1
@<TRIPOS>MOLECULE
MolPort-007-714-565 ChemDiv-E002-1916 MCULE-8688551559 PubChem-22510860 ZINC000006780263
 28 30 0 0 0
SMALL
GASTEIGER

@<TRIPOS>ATOM
      1 C           1.1365   42.3332   12.5715 C.ar    1  UNL1        0.1905
      2 C           3.2220   42.3195   11.3888 C.ar    1  UNL1        0.1904
      3 N           1.0005   42.0885   11.2471 N.ar    1  UNL1       -0.1239
      4 N           2.1593   42.0741   10.5910 N.ar    1  UNL1       -0.1240
      5 S           2.7587   42.5771   12.9843 S.2     1  UNL1       -0.0151
      6 C           5.1138   41.5854    9.8623 C.2     1  UNL1        0.3096
      7 N           4.5781   42.3669   10.9348 N.am    1  UNL1       -0.2468
      8 N           6.4962   41.7420    9.5183 N.am    1  UNL1       -0.2679
      9 O           4.3804   40.7749    9.2341 O.2     1  UNL1       -0.2521
     10 H           5.1900   42.9851   11.3959 H       1  UNL1        0.1584
     11 H           7.0114   42.3915   10.0494 H       1  UNL1        0.1564
     12 C           7.2084   41.0521    8.4819 C.ar    1  UNL1        0.0538
     13 C           6.5154   40.6719    7.3279 C.ar    1  UNL1        0.0145
     14 C           7.1747   39.9980    6.2959 C.ar    1  UNL1       -0.0008
     15 C           8.5351   39.6984    6.4101 C.ar    1  UNL1        0.0057
     16 C           9.2375   40.0756    7.5631 C.ar    1  UNL1        0.1374
     17 C           8.5742   40.7494    8.5927 C.ar    1  UNL1        0.0440
     18 C           9.2216   38.9801    5.3016 C.3     1  UNL1        0.0334
     19 F          10.5580   39.7937    7.6924 F       1  UNL1       -0.2045
     20 N           0.0150   42.4553   13.4674 N.pl3   1  UNL1       -0.2659
     21 C           0.0119   43.3590   14.5915 C.ar    1  UNL1        0.0531
     22 C          -0.4984   44.6618   14.4689 C.ar    1  UNL1        0.0149
     23 C          -0.4722   45.5412   15.5551 C.ar    1  UNL1        0.0013
     24 C           0.0728   45.1299   16.7736 C.ar    1  UNL1        0.0001
     25 C           0.5945   43.8407   16.9052 C.ar    1  UNL1        0.0013
     26 C           0.5678   42.9616   15.8189 C.ar    1  UNL1        0.0149
     27 C          -1.1479   41.6019   13.2404 C.3     1  UNL1        0.0975
     28 C          -1.6083   40.9898   14.5503 C.3     1  UNL1        0.0236
@<TRIPOS>BOND
     1     1    20    1
     2     1     5   ar
     3    27    20    1
     4    27    28    1
     5    22    23   ar
     6    24    25   ar
     7    26    21   ar
     8     2     7    1
     9     2     5   ar
    10     6     8   am
    11    13    14   ar
    12    15    16   ar
    13    16    19    1
    14    17    12   ar
    15    18    15    1
    16    20    21    1
    17     3     4   ar
    18     7     6   am
    19     8    12    1
    20     1     3   ar
    21    21    22   ar
    22    23    24   ar
    23    25    26   ar
    24     2     4   ar
    25     6     9    2
    26    12    13   ar
    27    14    15   ar
    28    16    17   ar
    29     7    10    1
    30     8    11    1
@<TRIPOS>MOLECULE
MolPort-007-714-565 ChemDiv-E002-1916 MCULE-8688551559 PubChem-22510860 ZINC000006780263
 28 30 0 0 0
SMALL
GASTEIGER

@<TRIPOS>ATOM
      1 C           6.0451   41.8607    9.3006 C.ar    1  UNL1        0.1905
      2 C           4.6053   41.2681   11.1238 C.ar    1  UNL1        0.1904
      3 N           6.7153   41.4342   10.3967 N.ar    1  UNL1       -0.1239
      4 N           5.9156   41.0985   11.4073 N.ar    1  UNL1       -0.1240
      5 S           4.3748   41.8624    9.5682 S.2     1  UNL1       -0.0151
      6 C           2.6259   41.9596   12.5561 C.2     1  UNL1        0.3096
      7 N           3.5394   40.9884   12.0365 N.am    1  UNL1       -0.2468
      8 N           1.6043   41.5292   13.4646 N.am    1  UNL1       -0.2679
      9 O           2.7211   43.1708   12.2193 O.2     1  UNL1       -0.2521
     10 H           3.4257   40.0555   12.3298 H       1  UNL1        0.1584
     11 H           1.5870   40.5699   13.6853 H       1  UNL1        0.1564
     12 C           0.6045   42.3486   14.0859 C.ar    1  UNL1        0.0538
     13 C          -0.5718   42.6251   13.3813 C.ar    1  UNL1        0.0145
     14 C          -1.5695   43.4197   13.9532 C.ar    1  UNL1       -0.0008
     15 C          -1.3983   43.9452   15.2370 C.ar    1  UNL1        0.0057
     16 C          -0.2226   43.6733   15.9503 C.ar    1  UNL1        0.1374
     17 C           0.7725   42.8782   15.3745 C.ar    1  UNL1        0.0440
     18 C          -2.4709   44.7895   15.8308 C.3     1  UNL1        0.0334
     19 F          -0.0381   44.1743   17.1972 F       1  UNL1       -0.2045
     20 N           6.7049   42.3326    8.1102 N.pl3   1  UNL1       -0.2659
     21 C           7.4906   41.4701    7.2621 C.ar    1  UNL1        0.0531
     22 C           8.7613   41.8635    6.8115 C.ar    1  UNL1        0.0149
     23 C           9.5048   41.0342    5.9670 C.ar    1  UNL1        0.0013
     24 C           8.9815   39.8058    5.5568 C.ar    1  UNL1        0.0001
     25 C           7.7138   39.4081    5.9882 C.ar    1  UNL1        0.0013
     26 C           6.9709   40.2376    6.8330 C.ar    1  UNL1        0.0149
     27 C           6.5963   43.7496    7.7745 C.3     1  UNL1        0.0975
     28 C           7.3741   44.5831    8.7759 C.3     1  UNL1        0.0236
@<TRIPOS>BOND
     1     1    20    1
     2     1     5   ar
     3    27    20    1
     4    27    28    1
     5    22    23   ar
     6    24    25   ar
     7    26    21   ar
     8     2     7    1
     9     2     5   ar
    10     6     8   am
    11    13    14   ar
    12    15    16   ar
    13    16    19    1
    14    17    12   ar
    15    18    15    1
    16    20    21    1
    17     3     4   ar
    18     7     6   am
    19     8    12    1
    20     1     3   ar
    21    21    22   ar
    22    23    24   ar
    23    25    26   ar
    24     2     4   ar
    25     6     9    2
    26    12    13   ar
    27    14    15   ar
    28    16    17   ar
    29     7    10    1
    30     8    11    1
