@<TRIPOS>MOLECULE
Molport-020-295-290 MCULE-3562488290 PubChem-110267373
 32 35 0 0 0
SMALL
GASTEIGER

@<TRIPOS>ATOM
      1 C           8.2375   41.7403   11.0159 C.ar    1  UNL1        0.2214
      2 C           9.6611   43.5574   10.4899 C.ar    1  UNL1        0.1031
      3 C          10.7199   42.6793   10.2708 C.ar    1  UNL1        0.0355
      4 C          10.4940   41.3090   10.4380 C.ar    1  UNL1        0.0644
      5 N           8.4453   43.0761   10.8567 N.ar    1  UNL1       -0.2120
      6 N           9.2610   40.8710   10.8054 N.ar    1  UNL1       -0.2179
      7 C          11.5886   40.3147   10.2192 C.3     1  UNL1        0.0564
      8 C          12.2750   39.9487   11.5380 C.3     1  UNL1        0.0087
      9 C          13.4730   39.0257   11.3007 C.3     1  UNL1        0.0178
     10 C          14.2698   39.4055   10.0450 C.3     1  UNL1        0.0721
     11 C          12.5801   40.8085    9.1492 C.3     1  UNL1        0.0780
     12 N          13.9665   40.7707    9.6220 N.3     1  UNL1       -0.2723
     13 C          14.8164   41.0540    8.4770 C.3     1  UNL1        0.0724
     14 C          16.2746   41.1457    8.9088 C.3     1  UNL1        0.0220
     15 C          16.9330   42.4157    8.3805 C.3     1  UNL1        0.0278
     16 C          16.0585   43.1198    7.3959 C.ar    1  UNL1       -0.0221
     17 C          14.9247   42.4730    6.8926 C.ar    1  UNL1       -0.0043
     18 C          14.1040   43.1189    5.9629 C.ar    1  UNL1       -0.0003
     19 C          14.4184   44.4113    5.5317 C.ar    1  UNL1       -0.0000
     20 C          15.5545   45.0575    6.0282 C.ar    1  UNL1       -0.0003
     21 C          16.3753   44.4122    6.9582 C.ar    1  UNL1       -0.0043
     22 N           6.9557   41.2300   11.4020 N.pl3   1  UNL1       -0.2678
     23 H           6.9502   40.4724   12.0307 H       1  UNL1        0.1565
     24 C           4.3446   42.8476    9.3158 C.ar    1  UNL1        0.1331
     25 C           3.3538   41.9965   11.2878 C.ar    1  UNL1        0.2012
     26 C           5.6812   41.7146   10.9623 C.ar    1  UNL1        0.1389
     27 C           5.5931   42.3792    9.7397 C.ar    1  UNL1        0.0686
     28 N           3.2527   42.6460   10.0989 N.ar    1  UNL1       -0.2091
     29 N           4.5596   41.5363   11.7115 N.ar    1  UNL1       -0.2088
     30 C           5.0487   44.6453    7.6740 C.3     1  UNL1        0.1096
     31 N           4.1967   43.5355    8.0713 N.pl3   1  UNL1       -0.3166
     32 H           3.4860   43.2448    7.4552 H       1  UNL1        0.1482
@<TRIPOS>BOND
     1    30    31    1
     2    25    28   ar
     3    26    29   ar
     4    26    22    1
     5    27    24   ar
     6     1     6   ar
     7     2     5   ar
     8     3     4   ar
     9     7     4    1
    10     7     8    1
    11     8     9    1
    12     9    10    1
    13    10    12    1
    14    11    12    1
    15    11     7    1
    16    13    12    1
    17    13    14    1
    18    14    15    1
    19    15    16    1
    20    17    18   ar
    21    19    20   ar
    22    21    16   ar
    23    31    24    1
    24    22     1    1
    25    24    28   ar
    26    25    29   ar
    27    26    27   ar
    28     1     5   ar
    29     2     3   ar
    30     4     6   ar
    31    16    17   ar
    32    18    19   ar
    33    20    21   ar
    34    31    32    1
    35    22    23    1
@<TRIPOS>MOLECULE
Molport-020-295-290 MCULE-3562488290 PubChem-110267373
 32 35 0 0 0
SMALL
GASTEIGER

@<TRIPOS>ATOM
      1 C           7.5994   41.8951   11.2051 C.ar    1  UNL1        0.2214
      2 C           8.8802   41.4955   13.1557 C.ar    1  UNL1        0.1031
      3 C           9.9089   40.9599   12.3843 C.ar    1  UNL1        0.0355
      4 C           9.7426   40.9075   10.9965 C.ar    1  UNL1        0.0644
      5 N           7.7497   41.9511   12.5568 N.ar    1  UNL1       -0.2120
      6 N           8.5948   41.3755   10.4390 N.ar    1  UNL1       -0.2179
      7 C          10.8084   40.3438   10.1128 C.3     1  UNL1        0.0564
      8 C          12.1844   40.4364   10.7781 C.3     1  UNL1        0.0087
      9 C          13.2909   39.9725    9.8273 C.3     1  UNL1        0.0178
     10 C          13.0528   40.4258    8.3804 C.3     1  UNL1        0.0721
     11 C          10.7760   40.9978    8.7190 C.3     1  UNL1        0.0780
     12 N          12.0867   41.5204    8.3238 N.3     1  UNL1       -0.2723
     13 C          11.9851   41.9190    6.9293 C.3     1  UNL1        0.0724
     14 C          13.3728   42.1081    6.3295 C.3     1  UNL1        0.0220
     15 C          13.9707   43.4547    6.7228 C.3     1  UNL1        0.0278
     16 C          15.3998   43.3224    7.1352 C.ar    1  UNL1       -0.0221
     17 C          16.3468   44.2284    6.6458 C.ar    1  UNL1       -0.0043
     18 C          17.6894   44.1083    7.0175 C.ar    1  UNL1       -0.0003
     19 C          18.0879   43.0790    7.8760 C.ar    1  UNL1       -0.0000
     20 C          17.1445   42.1683    8.3614 C.ar    1  UNL1       -0.0003
     21 C          15.8018   42.2882    7.9903 C.ar    1  UNL1       -0.0043
     22 N           6.4083   42.3758   10.5707 N.pl3   1  UNL1       -0.2678
     23 H           5.5729   42.3121   11.0878 H       1  UNL1        0.1565
     24 C           7.0906   43.0540    6.9845 C.ar    1  UNL1        0.1331
     25 C           5.3024   44.4205    7.7123 C.ar    1  UNL1        0.2012
     26 C           6.3141   42.9400    9.2572 C.ar    1  UNL1        0.1389
     27 C           7.1900   42.5000    8.2656 C.ar    1  UNL1        0.0686
     28 N           6.1492   44.0018    6.7360 N.ar    1  UNL1       -0.2091
     29 N           5.3877   43.8911    8.9603 N.ar    1  UNL1       -0.2088
     30 C           8.5453   41.3090    5.8613 C.3     1  UNL1        0.1096
     31 N           7.9630   42.6399    5.9302 N.pl3   1  UNL1       -0.3166
     32 H           8.1794   43.2849    5.2187 H       1  UNL1        0.1482
@<TRIPOS>BOND
     1    30    31    1
     2    25    28   ar
     3    26    29   ar
     4    26    22    1
     5    27    24   ar
     6     1     6   ar
     7     2     5   ar
     8     3     4   ar
     9     7     4    1
    10     7     8    1
    11     8     9    1
    12     9    10    1
    13    10    12    1
    14    11    12    1
    15    11     7    1
    16    13    12    1
    17    13    14    1
    18    14    15    1
    19    15    16    1
    20    17    18   ar
    21    19    20   ar
    22    21    16   ar
    23    31    24    1
    24    22     1    1
    25    24    28   ar
    26    25    29   ar
    27    26    27   ar
    28     1     5   ar
    29     2     3   ar
    30     4     6   ar
    31    16    17   ar
    32    18    19   ar
    33    20    21   ar
    34    31    32    1
    35    22    23    1
@<TRIPOS>MOLECULE
Molport-020-295-290 MCULE-3562488290 PubChem-110267373
 32 35 0 0 0
SMALL
GASTEIGER

@<TRIPOS>ATOM
      1 C           6.3945   42.7992    9.0268 C.ar    1  UNL1        0.2214
      2 C           6.0653   44.1042    7.0790 C.ar    1  UNL1        0.1031
      3 C           6.8487   43.2204    6.3406 C.ar    1  UNL1        0.0355
      4 C           7.4002   42.1136    6.9944 C.ar    1  UNL1        0.0644
      5 N           5.8528   43.8802    8.4015 N.ar    1  UNL1       -0.2120
      6 N           7.1610   41.9277    8.3193 N.ar    1  UNL1       -0.2179
      7 C           8.2507   41.1285    6.2590 C.3     1  UNL1        0.0564
      8 C           8.0850   39.7184    6.8323 C.3     1  UNL1        0.0087
      9 C           9.0447   38.7322    6.1616 C.3     1  UNL1        0.0178
     10 C          10.4257   39.3453    5.8914 C.3     1  UNL1        0.0721
     11 C           9.7206   41.5861    6.2196 C.3     1  UNL1        0.0780
     12 N          10.6356   40.5458    6.6972 N.3     1  UNL1       -0.2723
     13 C          11.9869   41.0056    6.4214 C.3     1  UNL1        0.0724
     14 C          12.6323   41.5466    7.6910 C.3     1  UNL1        0.0220
     15 C          14.1513   41.4213    7.6404 C.3     1  UNL1        0.0278
     16 C          14.7878   42.6615    7.1049 C.ar    1  UNL1       -0.0221
     17 C          14.0718   43.4817    6.2265 C.ar    1  UNL1       -0.0043
     18 C          14.6612   44.6401    5.7113 C.ar    1  UNL1       -0.0003
     19 C          15.9697   44.9780    6.0703 C.ar    1  UNL1       -0.0000
     20 C          16.6899   44.1566    6.9430 C.ar    1  UNL1       -0.0003
     21 C          16.1007   42.9982    7.4588 C.ar    1  UNL1       -0.0043
     22 N           6.1712   42.5601   10.4215 N.pl3   1  UNL1       -0.2678
     23 H           6.8452   42.9132   11.0462 H       1  UNL1        0.1565
     24 C           2.8620   41.8840   11.9637 C.ar    1  UNL1        0.1331
     25 C           4.0277   39.8444   11.6883 C.ar    1  UNL1        0.2012
     26 C           5.0628   41.8572   10.9958 C.ar    1  UNL1        0.1389
     27 C           3.9417   42.5776   11.4059 C.ar    1  UNL1        0.0686
     28 N           2.9287   40.5330   12.0927 N.ar    1  UNL1       -0.2091
     29 N           5.0829   40.5050   11.1449 N.ar    1  UNL1       -0.2088
     30 C           1.1066   42.3864   13.7214 C.3     1  UNL1        0.1096
     31 N           1.6877   42.5723   12.4011 N.pl3   1  UNL1       -0.3166
     32 H           1.2526   43.2006   11.7805 H       1  UNL1        0.1482
@<TRIPOS>BOND
     1    30    31    1
     2    25    28   ar
     3    26    29   ar
     4    26    22    1
     5    27    24   ar
     6     1     6   ar
     7     2     5   ar
     8     3     4   ar
     9     7     4    1
    10     7     8    1
    11     8     9    1
    12     9    10    1
    13    10    12    1
    14    11    12    1
    15    11     7    1
    16    13    12    1
    17    13    14    1
    18    14    15    1
    19    15    16    1
    20    17    18   ar
    21    19    20   ar
    22    21    16   ar
    23    31    24    1
    24    22     1    1
    25    24    28   ar
    26    25    29   ar
    27    26    27   ar
    28     1     5   ar
    29     2     3   ar
    30     4     6   ar
    31    16    17   ar
    32    18    19   ar
    33    20    21   ar
    34    31    32    1
    35    22    23    1
@<TRIPOS>MOLECULE
Molport-020-295-290 MCULE-3562488290 PubChem-110267373
 32 35 0 0 0
SMALL
GASTEIGER

@<TRIPOS>ATOM
      1 C           7.3492   40.4094    6.6893 C.ar    1  UNL1        0.2214
      2 C           7.6650   38.0631    6.6780 C.ar    1  UNL1        0.1031
      3 C           8.9349   38.2199    7.2283 C.ar    1  UNL1        0.0355
      4 C           9.3871   39.5151    7.5011 C.ar    1  UNL1        0.0644
      5 N           6.8983   39.1538    6.4192 N.ar    1  UNL1       -0.2120
      6 N           8.5862   40.5784    7.2268 N.ar    1  UNL1       -0.2179
      7 C          10.7403   39.7512    8.0908 C.3     1  UNL1        0.0564
      8 C          10.6508   40.6143    9.3523 C.3     1  UNL1        0.0087
      9 C          12.0433   40.9581    9.8875 C.3     1  UNL1        0.0178
     10 C          13.0486   41.2550    8.7663 C.3     1  UNL1        0.0721
     11 C          11.7088   40.3288    7.0420 C.3     1  UNL1        0.0780
     12 N          12.3639   41.5530    7.5105 N.3     1  UNL1       -0.2723
     13 C          13.3936   41.8852    6.5394 C.3     1  UNL1        0.0724
     14 C          13.5058   43.3964    6.3816 C.3     1  UNL1        0.0220
     15 C          14.8251   43.7914    5.7267 C.3     1  UNL1        0.0278
     16 C          15.9842   43.5533    6.6377 C.ar    1  UNL1       -0.0221
     17 C          17.1390   44.3316    6.5043 C.ar    1  UNL1       -0.0043
     18 C          18.2340   44.1110    7.3453 C.ar    1  UNL1       -0.0003
     19 C          18.1775   43.1084    8.3184 C.ar    1  UNL1       -0.0000
     20 C          17.0270   42.3249    8.4496 C.ar    1  UNL1       -0.0003
     21 C          15.9316   42.5453    7.6090 C.ar    1  UNL1       -0.0043
     22 N           6.5421   41.5615    6.4181 N.pl3   1  UNL1       -0.2678
     23 H           5.9889   41.5348    5.6041 H       1  UNL1        0.1565
     24 C           7.3295   44.1254    8.9859 C.ar    1  UNL1        0.1331
     25 C           5.4101   44.7941    7.7760 C.ar    1  UNL1        0.2012
     26 C           6.4616   42.7488    7.2158 C.ar    1  UNL1        0.1389
     27 C           7.4131   42.9624    8.2123 C.ar    1  UNL1        0.0686
     28 N           6.3301   45.0154    8.7508 N.ar    1  UNL1       -0.2091
     29 N           5.4795   43.6693    7.0175 N.ar    1  UNL1       -0.2088
     30 C           9.5948   43.7783   10.0679 C.3     1  UNL1        0.1096
     31 N           8.2783   44.3947   10.0208 N.pl3   1  UNL1       -0.3166
     32 H           8.0293   45.0261   10.7340 H       1  UNL1        0.1482
@<TRIPOS>BOND
     1    30    31    1
     2    25    28   ar
     3    26    29   ar
     4    26    22    1
     5    27    24   ar
     6     1     6   ar
     7     2     5   ar
     8     3     4   ar
     9     7     4    1
    10     7     8    1
    11     8     9    1
    12     9    10    1
    13    10    12    1
    14    11    12    1
    15    11     7    1
    16    13    12    1
    17    13    14    1
    18    14    15    1
    19    15    16    1
    20    17    18   ar
    21    19    20   ar
    22    21    16   ar
    23    31    24    1
    24    22     1    1
    25    24    28   ar
    26    25    29   ar
    27    26    27   ar
    28     1     5   ar
    29     2     3   ar
    30     4     6   ar
    31    16    17   ar
    32    18    19   ar
    33    20    21   ar
    34    31    32    1
    35    22    23    1
@<TRIPOS>MOLECULE
Molport-020-295-290 MCULE-3562488290 PubChem-110267373
 32 35 0 0 0
SMALL
GASTEIGER

@<TRIPOS>ATOM
      1 C          13.5521   38.0149   10.8897 C.ar    1  UNL1        0.2214
      2 C          12.0621   36.1879   10.6729 C.ar    1  UNL1        0.1031
      3 C          11.1953   36.9701    9.9134 C.ar    1  UNL1        0.0355
      4 C          11.5488   38.2992    9.6576 C.ar    1  UNL1        0.0644
      5 N          13.2187   36.7202   11.1455 N.ar    1  UNL1       -0.2120
      6 N          12.7165   38.7907   10.1496 N.ar    1  UNL1       -0.2179
      7 C          10.6619   39.1912    8.8500 C.3     1  UNL1        0.0564
      8 C           9.8023   38.3812    7.8757 C.3     1  UNL1        0.0087
      9 C           8.9839   39.2997    6.9646 C.3     1  UNL1        0.0178
     10 C           9.7696   40.5411    6.5204 C.3     1  UNL1        0.0721
     11 C          11.4759   40.2951    8.1496 C.3     1  UNL1        0.0780
     12 N          11.2058   40.3511    6.7104 N.3     1  UNL1       -0.2723
     13 C          11.8586   41.5454    6.1992 C.3     1  UNL1        0.0724
     14 C          13.0334   41.9298    7.0898 C.3     1  UNL1        0.0220
     15 C          14.0358   42.8032    6.3430 C.3     1  UNL1        0.0278
     16 C          15.3291   42.9107    7.0817 C.ar    1  UNL1       -0.0221
     17 C          16.1777   43.9953    6.8351 C.ar    1  UNL1       -0.0043
     18 C          17.3955   44.1011    7.5139 C.ar    1  UNL1       -0.0003
     19 C          17.7688   43.1197    8.4373 C.ar    1  UNL1       -0.0000
     20 C          16.9256   42.0313    8.6809 C.ar    1  UNL1       -0.0003
     21 C          15.7075   41.9253    8.0027 C.ar    1  UNL1       -0.0043
     22 N          14.7719   38.5786   11.3863 N.pl3   1  UNL1       -0.2678
     23 H          14.7070   39.1347   12.1961 H       1  UNL1        0.1565
     24 C          17.5680   37.2307    9.3488 C.ar    1  UNL1        0.1331
     25 C          18.3406   39.0731   10.6151 C.ar    1  UNL1        0.2012
     26 C          16.0770   38.4120   10.8194 C.ar    1  UNL1        0.1389
     27 C          16.2913   37.3858    9.9001 C.ar    1  UNL1        0.0686
     28 N          18.5643   38.0775    9.7183 N.ar    1  UNL1       -0.2091
     29 N          17.1060   39.2353   11.1580 N.ar    1  UNL1       -0.2088
     30 C          17.2541   34.8687    8.4855 C.3     1  UNL1        0.1096
     31 N          17.8437   36.1956    8.4019 N.pl3   1  UNL1       -0.3166
     32 H          18.4606   36.3898    7.6597 H       1  UNL1        0.1482
@<TRIPOS>BOND
     1    30    31    1
     2    25    28   ar
     3    26    29   ar
     4    26    22    1
     5    27    24   ar
     6     1     6   ar
     7     2     5   ar
     8     3     4   ar
     9     7     4    1
    10     7     8    1
    11     8     9    1
    12     9    10    1
    13    10    12    1
    14    11    12    1
    15    11     7    1
    16    13    12    1
    17    13    14    1
    18    14    15    1
    19    15    16    1
    20    17    18   ar
    21    19    20   ar
    22    21    16   ar
    23    31    24    1
    24    22     1    1
    25    24    28   ar
    26    25    29   ar
    27    26    27   ar
    28     1     5   ar
    29     2     3   ar
    30     4     6   ar
    31    16    17   ar
    32    18    19   ar
    33    20    21   ar
    34    31    32    1
    35    22    23    1
@<TRIPOS>MOLECULE
Molport-020-295-290 MCULE-3562488290 PubChem-110267373
 32 35 0 0 0
SMALL
GASTEIGER

@<TRIPOS>ATOM
      1 C           8.3044   43.5579    8.6945 C.ar    1  UNL1        0.2214
      2 C           9.5858   44.0224   10.6303 C.ar    1  UNL1        0.1031
      3 C          10.4391   42.9622   10.3338 C.ar    1  UNL1        0.0355
      4 C          10.1872   42.2062    9.1841 C.ar    1  UNL1        0.0644
      5 N           8.5391   44.3006    9.8108 N.ar    1  UNL1       -0.2120
      6 N           9.1286   42.5203    8.3918 N.ar    1  UNL1       -0.2179
      7 C          11.0648   41.0551    8.8105 C.3     1  UNL1        0.0564
      8 C          10.2878   39.7361    8.8371 C.3     1  UNL1        0.0087
      9 C          11.2119   38.5442    8.5743 C.3     1  UNL1        0.0178
     10 C          12.5798   38.6984    9.2533 C.3     1  UNL1        0.0721
     11 C          12.3316   41.0174    9.6854 C.3     1  UNL1        0.0780
     12 N          12.5327   39.7069   10.3094 N.3     1  UNL1       -0.2723
     13 C          13.8471   39.7263   10.9304 C.3     1  UNL1        0.0724
     14 C          14.9197   40.0292    9.8917 C.3     1  UNL1        0.0220
     15 C          14.3188   40.6519    8.6360 C.3     1  UNL1        0.0278
     16 C          15.2249   41.6814    8.0452 C.ar    1  UNL1       -0.0221
     17 C          16.4883   41.8941    8.6070 C.ar    1  UNL1       -0.0043
     18 C          17.3413   42.8621    8.0681 C.ar    1  UNL1       -0.0003
     19 C          16.9302   43.6224    6.9690 C.ar    1  UNL1       -0.0000
     20 C          15.6654   43.4165    6.4096 C.ar    1  UNL1       -0.0003
     21 C          14.8123   42.4483    6.9479 C.ar    1  UNL1       -0.0043
     22 N           7.2015   43.8498    7.8280 N.pl3   1  UNL1       -0.2678
     23 H           7.4197   44.1204    6.9069 H       1  UNL1        0.1565
     24 C           3.9341   42.5409    9.0102 C.ar    1  UNL1        0.1331
     25 C           3.6790   44.7970    8.3469 C.ar    1  UNL1        0.2012
     26 C           5.8120   43.7862    8.1711 C.ar    1  UNL1        0.1389
     27 C           5.2915   42.5948    8.6750 C.ar    1  UNL1        0.0686
     28 N           3.1578   43.6429    8.8388 N.ar    1  UNL1       -0.2091
     29 N           4.9952   44.8634    8.0177 N.ar    1  UNL1       -0.2088
     30 C           3.9840   40.5334   10.5561 C.3     1  UNL1        0.1096
     31 N           3.3480   41.3453    9.5307 N.pl3   1  UNL1       -0.3166
     32 H           2.4742   41.0586    9.1791 H       1  UNL1        0.1482
@<TRIPOS>BOND
     1    30    31    1
     2    25    28   ar
     3    26    29   ar
     4    26    22    1
     5    27    24   ar
     6     1     6   ar
     7     2     5   ar
     8     3     4   ar
     9     7     4    1
    10     7     8    1
    11     8     9    1
    12     9    10    1
    13    10    12    1
    14    11    12    1
    15    11     7    1
    16    13    12    1
    17    13    14    1
    18    14    15    1
    19    15    16    1
    20    17    18   ar
    21    19    20   ar
    22    21    16   ar
    23    31    24    1
    24    22     1    1
    25    24    28   ar
    26    25    29   ar
    27    26    27   ar
    28     1     5   ar
    29     2     3   ar
    30     4     6   ar
    31    16    17   ar
    32    18    19   ar
    33    20    21   ar
    34    31    32    1
    35    22    23    1
@<TRIPOS>MOLECULE
Molport-020-295-290 MCULE-3562488290 PubChem-110267373
 32 35 0 0 0
SMALL
GASTEIGER

@<TRIPOS>ATOM
      1 C          15.0807   39.3966   10.8657 C.ar    1  UNL1        0.2214
      2 C          17.4300   39.1473   11.0191 C.ar    1  UNL1        0.1031
      3 C          17.6069   40.0755    9.9958 C.ar    1  UNL1        0.0355
      4 C          16.4719   40.6554    9.4193 C.ar    1  UNL1        0.0644
      5 N          16.1776   38.8253   11.4341 N.ar    1  UNL1       -0.2120
      6 N          15.2373   40.3044    9.8662 N.ar    1  UNL1       -0.2179
      7 C          16.5936   41.6575    8.3168 C.3     1  UNL1        0.0564
      8 C          17.2185   42.9612    8.8210 C.3     1  UNL1        0.0087
      9 C          17.2316   44.0289    7.7240 C.3     1  UNL1        0.0178
     10 C          15.9557   44.0130    6.8710 C.3     1  UNL1        0.0721
     11 C          15.2398   41.8782    7.6166 C.3     1  UNL1        0.0780
     12 N          14.8780   43.2966    7.5491 N.3     1  UNL1       -0.2723
     13 C          13.7047   43.3983    6.6966 C.3     1  UNL1        0.0724
     14 C          13.0267   42.0404    6.5636 C.3     1  UNL1        0.0220
     15 C          11.5304   42.1356    6.8420 C.3     1  UNL1        0.0278
     16 C          10.7561   41.1509    6.0291 C.ar    1  UNL1       -0.0221
     17 C           9.3884   40.9805    6.2691 C.ar    1  UNL1       -0.0043
     18 C           8.6555   40.0544    5.5207 C.ar    1  UNL1       -0.0003
     19 C           9.2902   39.2938    4.5339 C.ar    1  UNL1       -0.0000
     20 C          10.6583   39.4574    4.2964 C.ar    1  UNL1       -0.0003
     21 C          11.3916   40.3837    5.0443 C.ar    1  UNL1       -0.0043
     22 N          13.7585   39.0593   11.3021 N.pl3   1  UNL1       -0.2678
     23 H          13.6685   38.7110   12.2185 H       1  UNL1        0.1565
     24 C          10.5823   40.4220    9.9450 C.ar    1  UNL1        0.1331
     25 C          11.0379   38.3371    8.9248 C.ar    1  UNL1        0.2012
     26 C          12.5545   39.1796   10.5350 C.ar    1  UNL1        0.1389
     27 C          11.7555   40.3103   10.6994 C.ar    1  UNL1        0.0686
     28 N          10.2494   39.4331    9.0746 N.ar    1  UNL1       -0.2091
     29 N          12.1798   38.2160    9.6506 N.ar    1  UNL1       -0.2088
     30 C          10.1962   42.8561   10.5355 C.3     1  UNL1        0.1096
     31 N           9.7261   41.5596   10.0736 N.pl3   1  UNL1       -0.3166
     32 H           8.7751   41.4610    9.8390 H       1  UNL1        0.1482
@<TRIPOS>BOND
     1    30    31    1
     2    25    28   ar
     3    26    29   ar
     4    26    22    1
     5    27    24   ar
     6     1     6   ar
     7     2     5   ar
     8     3     4   ar
     9     7     4    1
    10     7     8    1
    11     8     9    1
    12     9    10    1
    13    10    12    1
    14    11    12    1
    15    11     7    1
    16    13    12    1
    17    13    14    1
    18    14    15    1
    19    15    16    1
    20    17    18   ar
    21    19    20   ar
    22    21    16   ar
    23    31    24    1
    24    22     1    1
    25    24    28   ar
    26    25    29   ar
    27    26    27   ar
    28     1     5   ar
    29     2     3   ar
    30     4     6   ar
    31    16    17   ar
    32    18    19   ar
    33    20    21   ar
    34    31    32    1
    35    22    23    1
@<TRIPOS>MOLECULE
Molport-020-295-290 MCULE-3562488290 PubChem-110267373
 32 35 0 0 0
SMALL
GASTEIGER

@<TRIPOS>ATOM
      1 C          15.2768   37.7453   11.2130 C.ar    1  UNL1        0.2214
      2 C          13.2499   36.5969   10.7917 C.ar    1  UNL1        0.1031
      3 C          12.5898   37.8084   10.6006 C.ar    1  UNL1        0.0355
      4 C          13.3227   38.9931   10.7270 C.ar    1  UNL1        0.0644
      5 N          14.5740   36.5858   11.0930 N.ar    1  UNL1       -0.2120
      6 N          14.6466   38.9355   11.0291 N.ar    1  UNL1       -0.2179
      7 C          12.6732   40.3258   10.5351 C.3     1  UNL1        0.0564
      8 C          11.2172   40.3046   11.0083 C.3     1  UNL1        0.0087
      9 C          10.5161   41.6303   10.7007 C.3     1  UNL1        0.0178
     10 C          10.9222   42.2093    9.3385 C.3     1  UNL1        0.0721
     11 C          12.8193   40.8091    9.0802 C.3     1  UNL1        0.0780
     12 N          11.5312   41.1861    8.4919 N.3     1  UNL1       -0.2723
     13 C          11.8136   41.8141    7.2115 C.3     1  UNL1        0.0724
     14 C          13.2815   41.6342    6.8450 C.3     1  UNL1        0.0220
     15 C          13.9279   42.9627    6.4673 C.3     1  UNL1        0.0278
     16 C          15.3117   43.0767    7.0169 C.ar    1  UNL1       -0.0221
     17 C          15.7623   42.1409    7.9541 C.ar    1  UNL1       -0.0043
     18 C          17.0526   42.2435    8.4827 C.ar    1  UNL1       -0.0003
     19 C          17.8932   43.2851    8.0782 C.ar    1  UNL1       -0.0000
     20 C          17.4431   44.2256    7.1465 C.ar    1  UNL1       -0.0003
     21 C          16.1530   44.1231    6.6173 C.ar    1  UNL1       -0.0043
     22 N          16.6739   37.7364   11.5300 N.pl3   1  UNL1       -0.2678
     23 H          16.9595   38.2868   12.2946 H       1  UNL1        0.1565
     24 C          18.7044   36.2790    8.7840 C.ar    1  UNL1        0.1331
     25 C          19.6261   35.6347   10.8650 C.ar    1  UNL1        0.2012
     26 C          17.6959   37.0045   10.8427 C.ar    1  UNL1        0.1389
     27 C          17.7017   36.9940    9.4484 C.ar    1  UNL1        0.0686
     28 N          19.6442   35.6152    9.5067 N.ar    1  UNL1       -0.2091
     29 N          18.6586   36.3249   11.5228 N.ar    1  UNL1       -0.2088
     30 C          17.7879   35.5105    6.5497 C.3     1  UNL1        0.1096
     31 N          18.7580   36.2343    7.3561 N.pl3   1  UNL1       -0.3166
     32 H          19.4846   36.7152    6.8978 H       1  UNL1        0.1482
@<TRIPOS>BOND
     1    30    31    1
     2    25    28   ar
     3    26    29   ar
     4    26    22    1
     5    27    24   ar
     6     1     6   ar
     7     2     5   ar
     8     3     4   ar
     9     7     4    1
    10     7     8    1
    11     8     9    1
    12     9    10    1
    13    10    12    1
    14    11    12    1
    15    11     7    1
    16    13    12    1
    17    13    14    1
    18    14    15    1
    19    15    16    1
    20    17    18   ar
    21    19    20   ar
    22    21    16   ar
    23    31    24    1
    24    22     1    1
    25    24    28   ar
    26    25    29   ar
    27    26    27   ar
    28     1     5   ar
    29     2     3   ar
    30     4     6   ar
    31    16    17   ar
    32    18    19   ar
    33    20    21   ar
    34    31    32    1
    35    22    23    1
@<TRIPOS>MOLECULE
Molport-020-295-290 MCULE-3562488290 PubChem-110267373
 32 35 0 0 0
SMALL
GASTEIGER

@<TRIPOS>ATOM
      1 C           7.5388   41.5007   11.2287 C.ar    1  UNL1        0.2214
      2 C           9.8732   41.2790   11.5553 C.ar    1  UNL1        0.1031
      3 C          10.0697   41.1988   10.1787 C.ar    1  UNL1        0.0355
      4 C           8.9521   41.2749    9.3410 C.ar    1  UNL1        0.0644
      5 N           8.6188   41.4275   12.0541 N.ar    1  UNL1       -0.2120
      6 N           7.7148   41.4243    9.8831 N.ar    1  UNL1       -0.2179
      7 C           9.0953   41.1945    7.8552 C.3     1  UNL1        0.0564
      8 C           8.8643   39.7663    7.3539 C.3     1  UNL1        0.0087
      9 C           9.1300   39.6579    5.8502 C.3     1  UNL1        0.0178
     10 C          10.3377   40.4932    5.4036 C.3     1  UNL1        0.0721
     11 C          10.4458   41.7752    7.3963 C.3     1  UNL1        0.0780
     12 N          11.1854   40.8432    6.5410 N.3     1  UNL1       -0.2723
     13 C          12.3270   41.5676    6.0066 C.3     1  UNL1        0.0724
     14 C          13.0091   42.3693    7.1080 C.3     1  UNL1        0.0220
     15 C          14.2230   41.6320    7.6631 C.3     1  UNL1        0.0278
     16 C          15.4678   42.4467    7.5336 C.ar    1  UNL1       -0.0221
     17 C          16.5932   42.1148    8.2956 C.ar    1  UNL1       -0.0043
     18 C          17.7609   42.8764    8.1896 C.ar    1  UNL1       -0.0003
     19 C          17.8037   43.9742    7.3246 C.ar    1  UNL1       -0.0000
     20 C          16.6783   44.3120    6.5668 C.ar    1  UNL1       -0.0003
     21 C          15.5105   43.5505    6.6721 C.ar    1  UNL1       -0.0043
     22 N           6.2146   41.6581   11.7522 N.pl3   1  UNL1       -0.2678
     23 H           6.1049   41.5464   12.7242 H       1  UNL1        0.1565
     24 C           3.9720   43.1208    9.1796 C.ar    1  UNL1        0.1331
     25 C           2.7145   41.7110   10.6030 C.ar    1  UNL1        0.2012
     26 C           5.0344   41.9624   10.9992 C.ar    1  UNL1        0.1389
     27 C           5.1285   42.8301    9.9118 C.ar    1  UNL1        0.0686
     28 N           2.7907   42.5550    9.5412 N.ar    1  UNL1       -0.2091
     29 N           3.8293   41.4200   11.3225 N.ar    1  UNL1       -0.2088
     30 C           5.2508   44.5147    7.4931 C.3     1  UNL1        0.1096
     31 N           4.0109   44.0037    8.0558 N.pl3   1  UNL1       -0.3166
     32 H           3.1598   44.2782    7.6442 H       1  UNL1        0.1482
@<TRIPOS>BOND
     1    30    31    1
     2    25    28   ar
     3    26    29   ar
     4    26    22    1
     5    27    24   ar
     6     1     6   ar
     7     2     5   ar
     8     3     4   ar
     9     7     4    1
    10     7     8    1
    11     8     9    1
    12     9    10    1
    13    10    12    1
    14    11    12    1
    15    11     7    1
    16    13    12    1
    17    13    14    1
    18    14    15    1
    19    15    16    1
    20    17    18   ar
    21    19    20   ar
    22    21    16   ar
    23    31    24    1
    24    22     1    1
    25    24    28   ar
    26    25    29   ar
    27    26    27   ar
    28     1     5   ar
    29     2     3   ar
    30     4     6   ar
    31    16    17   ar
    32    18    19   ar
    33    20    21   ar
    34    31    32    1
    35    22    23    1
@<TRIPOS>MOLECULE
Molport-020-295-290 MCULE-3562488290 PubChem-110267373
 32 35 0 0 0
SMALL
GASTEIGER

@<TRIPOS>ATOM
      1 C           6.6260   42.6599    9.1275 C.ar    1  UNL1        0.2214
      2 C           5.8997   44.1284    7.4184 C.ar    1  UNL1        0.1031
      3 C           6.5820   43.3755    6.4657 C.ar    1  UNL1        0.0355
      4 C           7.2907   42.2471    6.8915 C.ar    1  UNL1        0.0644
      5 N           5.9331   43.7603    8.7252 N.ar    1  UNL1       -0.2120
      6 N           7.2965   41.9149    8.2094 N.ar    1  UNL1       -0.2179
      7 C           8.0442   41.3976    5.9193 C.3     1  UNL1        0.0564
      8 C           7.7885   39.9092    6.1715 C.3     1  UNL1        0.0087
      9 C           8.6526   39.0367    5.2573 C.3     1  UNL1        0.0178
     10 C          10.0679   39.6005    5.0704 C.3     1  UNL1        0.0721
     11 C           9.5428   41.7524    5.9188 C.3     1  UNL1        0.0780
     12 N          10.3895   40.5722    6.1130 N.3     1  UNL1       -0.2723
     13 C          11.7636   40.9903    5.8878 C.3     1  UNL1        0.0724
     14 C          12.2412   41.8790    7.0294 C.3     1  UNL1        0.0220
     15 C          13.6587   41.5178    7.4606 C.3     1  UNL1        0.0278
     16 C          14.6410   42.5669    7.0548 C.ar    1  UNL1       -0.0221
     17 C          15.9149   42.5810    7.6325 C.ar    1  UNL1       -0.0043
     18 C          16.8395   43.5643    7.2674 C.ar    1  UNL1       -0.0003
     19 C          16.4898   44.5380    6.3268 C.ar    1  UNL1       -0.0000
     20 C          15.2149   44.5301    5.7526 C.ar    1  UNL1       -0.0003
     21 C          14.2902   43.5468    6.1172 C.ar    1  UNL1       -0.0043
     22 N           6.6622   42.2689   10.5053 N.pl3   1  UNL1       -0.2678
     23 H           5.8078   42.2845   10.9941 H       1  UNL1        0.1565
     24 C          10.1288   41.1850   11.2764 C.ar    1  UNL1        0.1331
     25 C           8.8934   41.3436   13.2873 C.ar    1  UNL1        0.2012
     26 C           7.8206   41.8575   11.2411 C.ar    1  UNL1        0.1389
     27 C           9.0008   41.5840   10.5509 C.ar    1  UNL1        0.0686
     28 N          10.0503   41.0735   12.6284 N.ar    1  UNL1       -0.2091
     29 N           7.7909   41.7322   12.5955 N.ar    1  UNL1       -0.2088
     30 C          11.6572   39.5978   10.0245 C.3     1  UNL1        0.1096
     31 N          11.3645   40.8920   10.6199 N.pl3   1  UNL1       -0.3166
     32 H          12.0484   41.5984   10.5686 H       1  UNL1        0.1482
@<TRIPOS>BOND
     1    30    31    1
     2    25    28   ar
     3    26    29   ar
     4    26    22    1
     5    27    24   ar
     6     1     6   ar
     7     2     5   ar
     8     3     4   ar
     9     7     4    1
    10     7     8    1
    11     8     9    1
    12     9    10    1
    13    10    12    1
    14    11    12    1
    15    11     7    1
    16    13    12    1
    17    13    14    1
    18    14    15    1
    19    15    16    1
    20    17    18   ar
    21    19    20   ar
    22    21    16   ar
    23    31    24    1
    24    22     1    1
    25    24    28   ar
    26    25    29   ar
    27    26    27   ar
    28     1     5   ar
    29     2     3   ar
    30     4     6   ar
    31    16    17   ar
    32    18    19   ar
    33    20    21   ar
    34    31    32    1
    35    22    23    1
