@<TRIPOS>MOLECULE
MolPort-007-723-532 ChemDiv-E157-6122 MCULE-1436261333 PubChem-22518072 ZINC000009405017 ZINC09405017
 30 32 0 0 0
SMALL
GASTEIGER

@<TRIPOS>ATOM
      1 C           7.6496   42.0963    7.4916 C.ar    1  UNL1        0.2593
      2 C           9.0904   40.2012    7.6693 C.ar    1  UNL1        0.1894
      3 N           7.1187   40.9773    6.9529 N.ar    1  UNL1       -0.1187
      4 N           7.9221   39.9201    7.0502 N.ar    1  UNL1       -0.1239
      5 S           9.1804   41.8151    8.1354 S.2     1  UNL1       -0.0102
      6 C          10.8490   39.1044    9.1330 C.2     1  UNL1        0.2721
      7 N          10.1280   39.2449    7.9048 N.am    1  UNL1       -0.2597
      8 O          10.6241   39.8665   10.1102 O.2     1  UNL1       -0.2707
      9 H          10.3638   38.6378    7.1664 H       1  UNL1        0.1569
     10 C          11.9066   38.0661    9.2444 C.3     1  UNL1        0.2897
     11 O          12.5895   38.2124   10.4825 O.3     1  UNL1       -0.4656
     12 C          13.9281   38.6049   10.5635 C.ar    1  UNL1        0.1394
     13 C          14.7274   38.0808   11.5853 C.ar    1  UNL1        0.0392
     14 C          16.0705   38.4542   11.6930 C.ar    1  UNL1        0.0327
     15 C          16.6219   39.3547   10.7773 C.ar    1  UNL1        0.1403
     16 C          15.8304   39.8828    9.7536 C.ar    1  UNL1        0.0327
     17 C          14.4875   39.5100    9.6461 C.ar    1  UNL1        0.0392
     18 F          17.9225   39.7170   10.8832 F       1  UNL1       -0.2042
     19 S           6.8216   43.6391    7.5391 S.O2    1  UNL1        0.1010
     20 O           6.5479   44.1168    6.1404 O.2     1  UNL1       -0.1477
     21 O           7.7010   44.6418    8.2328 O.2     1  UNL1       -0.1477
     22 C           4.2227   44.3605    8.0293 C.3     1  UNL1        0.1392
     23 N           5.3164   43.4697    8.3924 N.pl3   1  UNL1       -0.1870
     24 C           5.1488   42.4958    9.4425 C.ar    1  UNL1        0.0686
     25 C           6.2178   42.1763   10.2971 C.ar    1  UNL1        0.0119
     26 C           6.0597   41.2304   11.3138 C.ar    1  UNL1       -0.0206
     27 C           7.2005   40.9037   12.2080 C.3     1  UNL1        0.0311
     28 C           4.8300   40.5920   11.4888 C.ar    1  UNL1       -0.0042
     29 C           3.7585   40.8998   10.6474 C.ar    1  UNL1        0.0010
     30 C           3.9177   41.8458    9.6312 C.ar    1  UNL1        0.0161
@<TRIPOS>BOND
     1    22    23    1
     2    25    26   ar
     3    27    26    1
     4    28    29   ar
     5    30    24   ar
     6     1     5   ar
     7     2     7    1
     8     2     5   ar
     9    10     6    1
    10    10    11    1
    11    12    11    1
    12    13    14   ar
    13    15    18    1
    14    15    16   ar
    15    17    12   ar
    16    23    24    1
    17     3     4   ar
    18     7     6   am
    19    19    23    1
    20    19     1    1
    21    24    25   ar
    22    26    28   ar
    23    29    30   ar
    24     1     3   ar
    25     2     4   ar
    26     6     8    2
    27    12    13   ar
    28    14    15   ar
    29    16    17   ar
    30    19    20    2
    31    19    21    2
    32     7     9    1
@<TRIPOS>MOLECULE
MolPort-007-723-532 ChemDiv-E157-6122 MCULE-1436261333 PubChem-22518072 ZINC000009405017 ZINC09405017
 30 32 0 0 0
SMALL
GASTEIGER

@<TRIPOS>ATOM
      1 C          11.0428   41.4760    8.5350 C.ar    1  UNL1        0.2593
      2 C           9.1957   42.9608    8.8216 C.ar    1  UNL1        0.1894
      3 N          11.2708   42.4287    9.4648 N.ar    1  UNL1       -0.1187
      4 N          10.2417   43.2583    9.6244 N.ar    1  UNL1       -0.1239
      5 S           9.5092   41.6211    7.8538 S.2     1  UNL1       -0.0102
      6 C           6.9547   43.5582    7.7925 C.2     1  UNL1        0.2721
      7 N           7.9664   43.6923    8.7956 N.am    1  UNL1       -0.2597
      8 O           7.1065   42.7777    6.8157 O.2     1  UNL1       -0.2707
      9 H           7.8044   44.3362    9.5225 H       1  UNL1        0.1569
     10 C           5.7206   44.3813    7.8851 C.3     1  UNL1        0.2897
     11 O           5.1257   44.2061    9.1641 O.3     1  UNL1       -0.4656
     12 C           4.6646   42.9677    9.6180 C.ar    1  UNL1        0.1394
     13 C           3.4355   42.4895    9.1509 C.ar    1  UNL1        0.0392
     14 C           2.9469   41.2539    9.5865 C.ar    1  UNL1        0.0327
     15 C           3.6870   40.4890   10.4924 C.ar    1  UNL1        0.1403
     16 C           4.9157   40.9593   10.9638 C.ar    1  UNL1        0.0327
     17 C           5.4040   42.1948   10.5289 C.ar    1  UNL1        0.0392
     18 F           3.2123   39.2930   10.9149 F       1  UNL1       -0.2042
     19 S          12.1977   40.2256    8.1216 S.O2    1  UNL1        0.1010
     20 O          12.0076   39.8055    6.6909 O.2     1  UNL1       -0.1477
     21 O          11.9674   39.0370    9.0127 O.2     1  UNL1       -0.1477
     22 C          14.6285   40.2432    9.3889 C.3     1  UNL1        0.1392
     23 N          13.8144   40.8289    8.3325 N.pl3   1  UNL1       -0.1870
     24 C          14.3387   41.8893    7.5078 C.ar    1  UNL1        0.0686
     25 C          15.6303   42.3958    7.7321 C.ar    1  UNL1        0.0119
     26 C          16.1403   43.4258    6.9367 C.ar    1  UNL1       -0.0206
     27 C          17.5076   43.9504    7.1880 C.3     1  UNL1        0.0311
     28 C          15.3647   43.9621    5.9066 C.ar    1  UNL1       -0.0042
     29 C          14.0796   43.4684    5.6717 C.ar    1  UNL1        0.0010
     30 C          13.5707   42.4384    6.4675 C.ar    1  UNL1        0.0161
@<TRIPOS>BOND
     1    22    23    1
     2    25    26   ar
     3    27    26    1
     4    28    29   ar
     5    30    24   ar
     6     1     5   ar
     7     2     7    1
     8     2     5   ar
     9    10     6    1
    10    10    11    1
    11    12    11    1
    12    13    14   ar
    13    15    18    1
    14    15    16   ar
    15    17    12   ar
    16    23    24    1
    17     3     4   ar
    18     7     6   am
    19    19    23    1
    20    19     1    1
    21    24    25   ar
    22    26    28   ar
    23    29    30   ar
    24     1     3   ar
    25     2     4   ar
    26     6     8    2
    27    12    13   ar
    28    14    15   ar
    29    16    17   ar
    30    19    20    2
    31    19    21    2
    32     7     9    1
@<TRIPOS>MOLECULE
MolPort-007-723-532 ChemDiv-E157-6122 MCULE-1436261333 PubChem-22518072 ZINC000009405017 ZINC09405017
 30 32 0 0 0
SMALL
GASTEIGER

@<TRIPOS>ATOM
      1 C           7.3969   42.6543    7.9592 C.ar    1  UNL1        0.2593
      2 C           9.1360   41.0453    8.2519 C.ar    1  UNL1        0.1894
      3 N           7.0728   41.4338    7.4803 N.ar    1  UNL1       -0.1187
      4 N           8.0427   40.5360    7.6417 N.ar    1  UNL1       -0.1239
      5 S           8.9427   42.6736    8.6279 S.2     1  UNL1       -0.0102
      6 C          10.8389   40.0713    9.8610 C.2     1  UNL1        0.2721
      7 N          10.3173   40.2942    8.5472 N.am    1  UNL1       -0.2597
      8 O          10.2825   40.5696   10.8751 O.2     1  UNL1       -0.2707
      9 H          10.8082   39.9013    7.7896 H       1  UNL1        0.1569
     10 C          12.0791   39.2695   10.0280 C.3     1  UNL1        0.2897
     11 O          12.8233   39.2846    8.8171 O.3     1  UNL1       -0.4656
     12 C          13.8162   40.2318    8.5539 C.ar    1  UNL1        0.1394
     13 C          15.0189   40.1687    9.2661 C.ar    1  UNL1        0.0392
     14 C          16.0317   41.1022    9.0257 C.ar    1  UNL1        0.0327
     15 C          15.8465   42.1047    8.0696 C.ar    1  UNL1        0.1403
     16 C          14.6483   42.1748    7.3537 C.ar    1  UNL1        0.0327
     17 C          13.6354   41.2419    7.5943 C.ar    1  UNL1        0.0392
     18 F          16.8275   43.0094    7.8384 F       1  UNL1       -0.2042
     19 S           6.3179   44.0334    7.9152 S.O2    1  UNL1        0.1010
     20 O           6.0803   44.4526    6.4914 O.2     1  UNL1       -0.1477
     21 O           6.9557   45.1738    8.6586 O.2     1  UNL1       -0.1477
     22 C           3.6294   44.4061    8.3004 C.3     1  UNL1        0.1392
     23 N           4.7997   43.6127    8.6505 N.pl3   1  UNL1       -0.1870
     24 C           4.6923   42.5276    9.5941 C.ar    1  UNL1        0.0686
     25 C           5.7797   42.1868   10.4167 C.ar    1  UNL1        0.0119
     26 C           5.6801   41.1335   11.3301 C.ar    1  UNL1       -0.0206
     27 C           6.8396   40.7857   12.1917 C.3     1  UNL1        0.0311
     28 C           4.4912   40.4078   11.4324 C.ar    1  UNL1       -0.0042
     29 C           3.4022   40.7356   10.6218 C.ar    1  UNL1        0.0010
     30 C           3.5028   41.7890    9.7089 C.ar    1  UNL1        0.0161
@<TRIPOS>BOND
     1    22    23    1
     2    25    26   ar
     3    27    26    1
     4    28    29   ar
     5    30    24   ar
     6     1     5   ar
     7     2     7    1
     8     2     5   ar
     9    10     6    1
    10    10    11    1
    11    12    11    1
    12    13    14   ar
    13    15    18    1
    14    15    16   ar
    15    17    12   ar
    16    23    24    1
    17     3     4   ar
    18     7     6   am
    19    19    23    1
    20    19     1    1
    21    24    25   ar
    22    26    28   ar
    23    29    30   ar
    24     1     3   ar
    25     2     4   ar
    26     6     8    2
    27    12    13   ar
    28    14    15   ar
    29    16    17   ar
    30    19    20    2
    31    19    21    2
    32     7     9    1
@<TRIPOS>MOLECULE
MolPort-007-723-532 ChemDiv-E157-6122 MCULE-1436261333 PubChem-22518072 ZINC000009405017 ZINC09405017
 30 32 0 0 0
SMALL
GASTEIGER

@<TRIPOS>ATOM
      1 C           6.9844   41.7213    7.9975 C.ar    1  UNL1        0.2593
      2 C           8.9575   41.7368    6.6538 C.ar    1  UNL1        0.1894
      3 N           7.1411   40.5898    7.2767 N.ar    1  UNL1       -0.1187
      4 N           8.2405   40.5981    6.5258 N.ar    1  UNL1       -0.1239
      5 S           8.2409   42.8111    7.7319 S.2     1  UNL1       -0.0102
      6 C          11.4893   41.8272    6.5126 C.2     1  UNL1        0.2721
      7 N          10.1806   42.0011    5.9603 N.am    1  UNL1       -0.2597
      8 O          11.6478   41.4442    7.7019 O.2     1  UNL1       -0.2707
      9 H          10.1171   42.3271    5.0335 H       1  UNL1        0.1569
     10 C          12.6806   42.1398    5.6807 C.3     1  UNL1        0.2897
     11 O          13.3154   43.3103    6.1779 O.3     1  UNL1       -0.4656
     12 C          14.6107   43.3009    6.7020 C.ar    1  UNL1        0.1394
     13 C          15.4796   44.3493    6.3803 C.ar    1  UNL1        0.0392
     14 C          16.7819   44.3684    6.8889 C.ar    1  UNL1        0.0327
     15 C          17.2220   43.3374    7.7237 C.ar    1  UNL1        0.1403
     16 C          16.3605   42.2865    8.0500 C.ar    1  UNL1        0.0327
     17 C          15.0586   42.2670    7.5413 C.ar    1  UNL1        0.0392
     18 F          18.4841   43.3559    8.2147 F       1  UNL1       -0.2042
     19 S           5.6494   41.9954    9.0978 S.O2    1  UNL1        0.1010
     20 O           4.4176   41.2977    8.5925 O.2     1  UNL1       -0.1477
     21 O           5.3765   43.4718    9.1730 O.2     1  UNL1       -0.1477
     22 C           4.9663   40.8981   11.5153 C.3     1  UNL1        0.1392
     23 N           6.0526   41.3792   10.6726 N.pl3   1  UNL1       -0.1870
     24 C           7.4131   41.3578   11.1498 C.ar    1  UNL1        0.0686
     25 C           7.6861   41.2323   12.5227 C.ar    1  UNL1        0.0119
     26 C           9.0037   41.2145   12.9890 C.ar    1  UNL1       -0.0206
     27 C           9.2747   41.0820   14.4439 C.3     1  UNL1        0.0311
     28 C          10.0650   41.3219   12.0877 C.ar    1  UNL1       -0.0042
     29 C           9.8089   41.4467   10.7204 C.ar    1  UNL1        0.0010
     30 C           8.4912   41.4642   10.2553 C.ar    1  UNL1        0.0161
@<TRIPOS>BOND
     1    22    23    1
     2    25    26   ar
     3    27    26    1
     4    28    29   ar
     5    30    24   ar
     6     1     5   ar
     7     2     7    1
     8     2     5   ar
     9    10     6    1
    10    10    11    1
    11    12    11    1
    12    13    14   ar
    13    15    18    1
    14    15    16   ar
    15    17    12   ar
    16    23    24    1
    17     3     4   ar
    18     7     6   am
    19    19    23    1
    20    19     1    1
    21    24    25   ar
    22    26    28   ar
    23    29    30   ar
    24     1     3   ar
    25     2     4   ar
    26     6     8    2
    27    12    13   ar
    28    14    15   ar
    29    16    17   ar
    30    19    20    2
    31    19    21    2
    32     7     9    1
@<TRIPOS>MOLECULE
MolPort-007-723-532 ChemDiv-E157-6122 MCULE-1436261333 PubChem-22518072 ZINC000009405017 ZINC09405017
 30 32 0 0 0
SMALL
GASTEIGER

@<TRIPOS>ATOM
      1 C          10.8090   41.9251    8.6388 C.ar    1  UNL1        0.2593
      2 C           8.8399   43.2493    8.9003 C.ar    1  UNL1        0.1894
      3 N          10.9429   42.8913    9.5730 N.ar    1  UNL1       -0.1187
      4 N           9.8457   43.6313    9.7186 N.ar    1  UNL1       -0.1239
      5 S           9.2786   41.9429    7.9354 S.2     1  UNL1       -0.0102
      6 C           6.6644   43.8422    7.7370 C.2     1  UNL1        0.2721
      7 N           7.5542   43.8751    8.8573 N.am    1  UNL1       -0.2597
      8 O           6.9870   43.2617    6.6668 O.2     1  UNL1       -0.2707
      9 H           7.2594   44.3653    9.6586 H       1  UNL1        0.1569
     10 C           5.3533   44.5367    7.8249 C.3     1  UNL1        0.2897
     11 O           4.7850   44.3213    9.1099 O.3     1  UNL1       -0.4656
     12 C           4.4142   43.0543    9.5677 C.ar    1  UNL1        0.1394
     13 C           5.2576   42.3821   10.4590 C.ar    1  UNL1        0.0392
     14 C           4.9143   41.1130   10.9351 C.ar    1  UNL1        0.0327
     15 C           3.7235   40.5093   10.5217 C.ar    1  UNL1        0.1403
     16 C           2.8754   41.1739    9.6317 C.ar    1  UNL1        0.0327
     17 C           3.2186   42.4425    9.1553 C.ar    1  UNL1        0.0392
     18 F           3.3925   39.2794   10.9822 F       1  UNL1       -0.2042
     19 S          12.0705   40.7770    8.2407 S.O2    1  UNL1        0.1010
     20 O          13.3192   41.1000    9.0125 O.2     1  UNL1       -0.1477
     21 O          12.3685   40.8725    6.7703 O.2     1  UNL1       -0.1477
     22 C          10.3193   38.6782    8.0315 C.3     1  UNL1        0.1392
     23 N          11.5469   39.1688    8.6432 N.pl3   1  UNL1       -0.1870
     24 C          12.2843   38.3434    9.5674 C.ar    1  UNL1        0.0686
     25 C          13.3291   38.8878   10.3337 C.ar    1  UNL1        0.0119
     26 C          14.0480   38.0897   11.2280 C.ar    1  UNL1       -0.0206
     27 C          15.1503   38.6810   12.0300 C.3     1  UNL1        0.0311
     28 C          13.7308   36.7368   11.3674 C.ar    1  UNL1       -0.0042
     29 C          12.6947   36.1822   10.6128 C.ar    1  UNL1        0.0010
     30 C          11.9764   36.9810    9.7189 C.ar    1  UNL1        0.0161
@<TRIPOS>BOND
     1    22    23    1
     2    25    26   ar
     3    27    26    1
     4    28    29   ar
     5    30    24   ar
     6     1     5   ar
     7     2     7    1
     8     2     5   ar
     9    10     6    1
    10    10    11    1
    11    12    11    1
    12    13    14   ar
    13    15    18    1
    14    15    16   ar
    15    17    12   ar
    16    23    24    1
    17     3     4   ar
    18     7     6   am
    19    19    23    1
    20    19     1    1
    21    24    25   ar
    22    26    28   ar
    23    29    30   ar
    24     1     3   ar
    25     2     4   ar
    26     6     8    2
    27    12    13   ar
    28    14    15   ar
    29    16    17   ar
    30    19    20    2
    31    19    21    2
    32     7     9    1
@<TRIPOS>MOLECULE
MolPort-007-723-532 ChemDiv-E157-6122 MCULE-1436261333 PubChem-22518072 ZINC000009405017 ZINC09405017
 30 32 0 0 0
SMALL
GASTEIGER

@<TRIPOS>ATOM
      1 C          13.4390   38.5421    9.9521 C.ar    1  UNL1        0.2593
      2 C          11.2709   39.4961   10.2488 C.ar    1  UNL1        0.1894
      3 N          12.5059   37.9937    9.1440 N.ar    1  UNL1       -0.1187
      4 N          11.2960   38.5241    9.3098 N.ar    1  UNL1       -0.1239
      5 S          12.7875   39.7470   10.9323 S.2     1  UNL1       -0.0102
      6 C           9.4948   41.2596    9.8322 C.2     1  UNL1        0.2721
      7 N          10.0991   40.2285   10.6193 N.am    1  UNL1       -0.2597
      8 O           9.9974   41.6193    8.7348 O.2     1  UNL1       -0.2707
      9 H           9.6767   40.0064   11.4804 H       1  UNL1        0.1569
     10 C           8.2749   41.9429   10.3359 C.3     1  UNL1        0.2897
     11 O           7.1471   41.5248    9.5785 O.3     1  UNL1       -0.4656
     12 C           6.1380   42.4053    9.1799 C.ar    1  UNL1        0.1394
     13 C           6.4545   43.4440    8.2975 C.ar    1  UNL1        0.0392
     14 C           5.4669   44.3415    7.8801 C.ar    1  UNL1        0.0327
     15 C           4.1555   44.2037    8.3434 C.ar    1  UNL1        0.1403
     16 C           3.8309   43.1689    9.2249 C.ar    1  UNL1        0.0327
     17 C           4.8182   42.2719    9.6427 C.ar    1  UNL1        0.0392
     18 F           3.1998   45.0743    7.9398 F       1  UNL1       -0.2042
     19 S          15.1262   38.0718    9.9470 S.O2    1  UNL1        0.1010
     20 O          15.4536   37.3522    8.6686 O.2     1  UNL1       -0.1477
     21 O          15.3764   37.1459   11.1047 O.2     1  UNL1       -0.1477
     22 C          17.1263   39.5152   11.1434 C.3     1  UNL1        0.1392
     23 N          16.1286   39.4857   10.0826 N.pl3   1  UNL1       -0.1870
     24 C          15.9743   40.6093    9.1921 C.ar    1  UNL1        0.0686
     25 C          17.0133   41.5422    9.0332 C.ar    1  UNL1        0.0119
     26 C          16.8659   42.6342    8.1734 C.ar    1  UNL1       -0.0206
     27 C          17.9740   43.6117    8.0177 C.3     1  UNL1        0.0311
     28 C          15.6769   42.8069    7.4613 C.ar    1  UNL1       -0.0042
     29 C          14.6359   41.8876    7.6088 C.ar    1  UNL1        0.0010
     30 C          14.7845   40.7960    8.4687 C.ar    1  UNL1        0.0161
@<TRIPOS>BOND
     1    22    23    1
     2    25    26   ar
     3    27    26    1
     4    28    29   ar
     5    30    24   ar
     6     1     5   ar
     7     2     7    1
     8     2     5   ar
     9    10     6    1
    10    10    11    1
    11    12    11    1
    12    13    14   ar
    13    15    18    1
    14    15    16   ar
    15    17    12   ar
    16    23    24    1
    17     3     4   ar
    18     7     6   am
    19    19    23    1
    20    19     1    1
    21    24    25   ar
    22    26    28   ar
    23    29    30   ar
    24     1     3   ar
    25     2     4   ar
    26     6     8    2
    27    12    13   ar
    28    14    15   ar
    29    16    17   ar
    30    19    20    2
    31    19    21    2
    32     7     9    1
@<TRIPOS>MOLECULE
MolPort-007-723-532 ChemDiv-E157-6122 MCULE-1436261333 PubChem-22518072 ZINC000009405017 ZINC09405017
 30 32 0 0 0
SMALL
GASTEIGER

@<TRIPOS>ATOM
      1 C          10.0698   41.0636   10.1363 C.ar    1  UNL1        0.2593
      2 C          12.2783   40.3698    9.5532 C.ar    1  UNL1        0.1894
      3 N          10.3081   39.7654   10.4228 N.ar    1  UNL1       -0.1187
      4 N          11.5392   39.3771   10.0966 N.ar    1  UNL1       -0.1239
      5 S          11.4152   41.8101    9.4509 S.2     1  UNL1       -0.0102
      6 C          14.7267   39.8424    9.9597 C.2     1  UNL1        0.2721
      7 N          13.6328   40.2201    9.1178 N.am    1  UNL1       -0.2597
      8 O          14.5598   39.6406   11.1917 O.2     1  UNL1       -0.2707
      9 H          13.8270   40.3898    8.1677 H       1  UNL1        0.1569
     10 C          16.0890   39.7228    9.3776 C.3     1  UNL1        0.2897
     11 O          16.8031   40.9345    9.5830 O.3     1  UNL1       -0.4656
     12 C          16.7429   42.0062    8.6885 C.ar    1  UNL1        0.1394
     13 C          15.6435   42.1110    7.8294 C.ar    1  UNL1        0.0392
     14 C          15.5543   43.1718    6.9229 C.ar    1  UNL1        0.0327
     15 C          16.5657   44.1351    6.8717 C.ar    1  UNL1        0.1403
     16 C          17.6672   44.0379    7.7263 C.ar    1  UNL1        0.0327
     17 C          17.7568   42.9771    8.6323 C.ar    1  UNL1        0.0392
     18 F          16.4793   45.1615    5.9923 F       1  UNL1       -0.2042
     19 S           8.5520   41.8702   10.4734 S.O2    1  UNL1        0.1010
     20 O           8.7588   43.3588   10.5044 O.2     1  UNL1       -0.1477
     21 O           8.0502   41.4203   11.8172 O.2     1  UNL1       -0.1477
     22 C           7.8606   40.7340    8.0763 C.3     1  UNL1        0.1392
     23 N           7.3932   41.4774    9.2384 N.pl3   1  UNL1       -0.1870
     24 C           6.0140   41.8859    9.3391 C.ar    1  UNL1        0.0686
     25 C           5.5754   43.0748    8.7314 C.ar    1  UNL1        0.0119
     26 C           4.2400   43.4754    8.8299 C.ar    1  UNL1       -0.0206
     27 C           3.7931   44.7357    8.1821 C.3     1  UNL1        0.0311
     28 C           3.3260   42.6916    9.5375 C.ar    1  UNL1       -0.0042
     29 C           3.7474   41.5073   10.1462 C.ar    1  UNL1        0.0010
     30 C           5.0829   41.1076   10.0470 C.ar    1  UNL1        0.0161
@<TRIPOS>BOND
     1    22    23    1
     2    25    26   ar
     3    27    26    1
     4    28    29   ar
     5    30    24   ar
     6     1     5   ar
     7     2     7    1
     8     2     5   ar
     9    10     6    1
    10    10    11    1
    11    12    11    1
    12    13    14   ar
    13    15    18    1
    14    15    16   ar
    15    17    12   ar
    16    23    24    1
    17     3     4   ar
    18     7     6   am
    19    19    23    1
    20    19     1    1
    21    24    25   ar
    22    26    28   ar
    23    29    30   ar
    24     1     3   ar
    25     2     4   ar
    26     6     8    2
    27    12    13   ar
    28    14    15   ar
    29    16    17   ar
    30    19    20    2
    31    19    21    2
    32     7     9    1
@<TRIPOS>MOLECULE
MolPort-007-723-532 ChemDiv-E157-6122 MCULE-1436261333 PubChem-22518072 ZINC000009405017 ZINC09405017
 30 32 0 0 0
SMALL
GASTEIGER

@<TRIPOS>ATOM
      1 C           9.4397   41.2213    8.3615 C.ar    1  UNL1        0.2593
      2 C           7.2073   41.8951    7.8502 C.ar    1  UNL1        0.1894
      3 N           8.6885   40.2191    7.8559 N.ar    1  UNL1       -0.1187
      4 N           7.4428   40.5935    7.5717 N.ar    1  UNL1       -0.1239
      5 S           8.5690   42.6585    8.4770 S.2     1  UNL1       -0.0102
      6 C           5.6308   43.8685    8.0923 C.2     1  UNL1        0.2721
      7 N           5.9537   42.5507    7.6372 N.am    1  UNL1       -0.2597
      8 O           6.4551   44.5456    8.7618 O.2     1  UNL1       -0.2707
      9 H           5.2611   42.0582    7.1401 H       1  UNL1        0.1569
     10 C           4.2867   44.4325    7.8022 C.3     1  UNL1        0.2897
     11 O           3.3730   44.0322    8.8149 O.3     1  UNL1       -0.4656
     12 C           3.5487   42.8718    9.5731 C.ar    1  UNL1        0.1394
     13 C           2.9223   41.6909    9.1599 C.ar    1  UNL1        0.0392
     14 C           3.0787   40.5133    9.8973 C.ar    1  UNL1        0.0327
     15 C           3.8644   40.5108   11.0532 C.ar    1  UNL1        0.1403
     16 C           4.4937   41.6860   11.4728 C.ar    1  UNL1        0.0327
     17 C           4.3370   42.8636   10.7360 C.ar    1  UNL1        0.0392
     18 F           4.0142   39.3701   11.7677 F       1  UNL1       -0.2042
     19 S          11.1242   41.0433    8.8070 S.O2    1  UNL1        0.1010
     20 O          11.3307   39.7350    9.5177 O.2     1  UNL1       -0.1477
     21 O          11.5036   42.1655    9.7326 O.2     1  UNL1       -0.1477
     22 C          11.5694   40.5134    6.1544 C.3     1  UNL1        0.1392
     23 N          12.1149   41.0832    7.3789 N.pl3   1  UNL1       -0.1870
     24 C          13.4443   41.6416    7.3971 C.ar    1  UNL1        0.0686
     25 C          13.7871   42.6967    6.5344 C.ar    1  UNL1        0.0119
     26 C          15.0757   43.2381    6.5471 C.ar    1  UNL1       -0.0206
     27 C          15.4218   44.3529    5.6277 C.3     1  UNL1        0.0311
     28 C          16.0378   42.7309    7.4232 C.ar    1  UNL1       -0.0042
     29 C          15.7112   41.6828    8.2866 C.ar    1  UNL1        0.0010
     30 C          14.4225   41.1424    8.2732 C.ar    1  UNL1        0.0161
@<TRIPOS>BOND
     1    22    23    1
     2    25    26   ar
     3    27    26    1
     4    28    29   ar
     5    30    24   ar
     6     1     5   ar
     7     2     7    1
     8     2     5   ar
     9    10     6    1
    10    10    11    1
    11    12    11    1
    12    13    14   ar
    13    15    18    1
    14    15    16   ar
    15    17    12   ar
    16    23    24    1
    17     3     4   ar
    18     7     6   am
    19    19    23    1
    20    19     1    1
    21    24    25   ar
    22    26    28   ar
    23    29    30   ar
    24     1     3   ar
    25     2     4   ar
    26     6     8    2
    27    12    13   ar
    28    14    15   ar
    29    16    17   ar
    30    19    20    2
    31    19    21    2
    32     7     9    1
@<TRIPOS>MOLECULE
MolPort-007-723-532 ChemDiv-E157-6122 MCULE-1436261333 PubChem-22518072 ZINC000009405017 ZINC09405017
 30 32 0 0 0
SMALL
GASTEIGER

@<TRIPOS>ATOM
      1 C          10.7778   41.2996    7.7946 C.ar    1  UNL1        0.2593
      2 C           8.7309   42.5281    7.7845 C.ar    1  UNL1        0.1894
      3 N          10.0290   41.0687    6.6945 N.ar    1  UNL1       -0.1187
      4 N           8.8864   41.7523    6.6886 N.ar    1  UNL1       -0.1239
      5 S          10.0374   42.3970    8.8361 S.2     1  UNL1       -0.0102
      6 C           6.4940   43.5286    7.1263 C.2     1  UNL1        0.2721
      7 N           7.5951   43.3640    8.0254 N.am    1  UNL1       -0.2597
      8 O           6.4734   42.9466    6.0096 O.2     1  UNL1       -0.2707
      9 H           7.5691   43.8635    8.8734 H       1  UNL1        0.1569
     10 C           5.3739   44.4309    7.5007 C.3     1  UNL1        0.2897
     11 O           5.0792   44.2767    8.8827 O.3     1  UNL1       -0.4656
     12 C           4.6578   43.0635    9.4330 C.ar    1  UNL1        0.1394
     13 C           3.3589   42.6147    9.1700 C.ar    1  UNL1        0.0392
     14 C           2.9077   41.4048    9.7063 C.ar    1  UNL1        0.0327
     15 C           3.7552   40.6361   10.5091 C.ar    1  UNL1        0.1403
     16 C           5.0541   41.0771   10.7766 C.ar    1  UNL1        0.0327
     17 C           5.5052   42.2869   10.2410 C.ar    1  UNL1        0.0392
     18 F           3.3168   39.4651   11.0293 F       1  UNL1       -0.2042
     19 S          12.3434   40.5664    8.0758 S.O2    1  UNL1        0.1010
     20 O          13.4333   41.4927    7.6137 O.2     1  UNL1       -0.1477
     21 O          12.4283   39.2858    7.2929 O.2     1  UNL1       -0.1477
     22 C          11.3999   40.4647   10.6477 C.3     1  UNL1        0.1392
     23 N          12.5437   40.2461    9.7727 N.pl3   1  UNL1       -0.1870
     24 C          13.8029   39.7970   10.3133 C.ar    1  UNL1        0.0686
     25 C          15.0149   40.1874    9.7184 C.ar    1  UNL1        0.0119
     26 C          16.2370   39.7512   10.2378 C.ar    1  UNL1       -0.0206
     27 C          17.5093   40.1726    9.5963 C.3     1  UNL1        0.0311
     28 C          16.2623   38.9191   11.3592 C.ar    1  UNL1       -0.0042
     29 C          15.0658   38.5235   11.9611 C.ar    1  UNL1        0.0010
     30 C          13.8444   38.9603   11.4410 C.ar    1  UNL1        0.0161
@<TRIPOS>BOND
     1    22    23    1
     2    25    26   ar
     3    27    26    1
     4    28    29   ar
     5    30    24   ar
     6     1     5   ar
     7     2     7    1
     8     2     5   ar
     9    10     6    1
    10    10    11    1
    11    12    11    1
    12    13    14   ar
    13    15    18    1
    14    15    16   ar
    15    17    12   ar
    16    23    24    1
    17     3     4   ar
    18     7     6   am
    19    19    23    1
    20    19     1    1
    21    24    25   ar
    22    26    28   ar
    23    29    30   ar
    24     1     3   ar
    25     2     4   ar
    26     6     8    2
    27    12    13   ar
    28    14    15   ar
    29    16    17   ar
    30    19    20    2
    31    19    21    2
    32     7     9    1
@<TRIPOS>MOLECULE
MolPort-007-723-532 ChemDiv-E157-6122 MCULE-1436261333 PubChem-22518072 ZINC000009405017 ZINC09405017
 30 32 0 0 0
SMALL
GASTEIGER

@<TRIPOS>ATOM
      1 C           9.0131   40.9245    6.8414 C.ar    1  UNL1        0.2593
      2 C           7.0479   42.2774    6.9239 C.ar    1  UNL1        0.1894
      3 N           8.9038   41.7614    5.7870 N.ar    1  UNL1       -0.1187
      4 N           7.8073   42.5154    5.8313 N.ar    1  UNL1       -0.1239
      5 S           7.7206   41.0908    7.9086 S.2     1  UNL1       -0.0102
      6 C           5.6973   44.1016    8.0579 C.2     1  UNL1        0.2721
      7 N           5.8203   42.9520    7.2145 N.am    1  UNL1       -0.2597
      8 O           6.7002   44.5894    8.6431 O.2     1  UNL1       -0.2707
      9 H           4.9984   42.5990    6.8033 H       1  UNL1        0.1569
     10 C           4.3577   44.7071    8.2765 C.3     1  UNL1        0.2897
     11 O           3.4047   43.6810    8.5199 O.3     1  UNL1       -0.4656
     12 C           3.6212   42.6543    9.4425 C.ar    1  UNL1        0.1394
     13 C           2.9548   41.4362    9.2698 C.ar    1  UNL1        0.0392
     14 C           3.1504   40.3895   10.1760 C.ar    1  UNL1        0.0327
     15 C           4.0156   40.5562   11.2610 C.ar    1  UNL1        0.1403
     16 C           4.6851   41.7696   11.4409 C.ar    1  UNL1        0.0327
     17 C           4.4893   42.8163   10.5352 C.ar    1  UNL1        0.0392
     18 F           4.2033   39.5424   12.1392 F       1  UNL1       -0.2042
     19 S          10.3587   39.8281    7.0764 S.O2    1  UNL1        0.1010
     20 O          11.0466   39.5729    5.7645 O.2     1  UNL1       -0.1477
     21 O           9.8362   38.5250    7.6137 O.2     1  UNL1       -0.1477
     22 C          11.2518   40.3381    9.6176 C.3     1  UNL1        0.1392
     23 N          11.4938   40.5253    8.1935 N.pl3   1  UNL1       -0.1870
     24 C          12.6324   41.2842    7.7386 C.ar    1  UNL1        0.0686
     25 C          13.8880   41.1227    8.3489 C.ar    1  UNL1        0.0119
     26 C          14.9929   41.8591    7.9126 C.ar    1  UNL1       -0.0206
     27 C          16.3131   41.6768    8.5695 C.3     1  UNL1        0.0311
     28 C          14.8559   42.7666    6.8599 C.ar    1  UNL1       -0.0042
     29 C          13.6143   42.9373    6.2435 C.ar    1  UNL1        0.0010
     30 C          12.5103   42.2003    6.6804 C.ar    1  UNL1        0.0161
@<TRIPOS>BOND
     1    22    23    1
     2    25    26   ar
     3    27    26    1
     4    28    29   ar
     5    30    24   ar
     6     1     5   ar
     7     2     7    1
     8     2     5   ar
     9    10     6    1
    10    10    11    1
    11    12    11    1
    12    13    14   ar
    13    15    18    1
    14    15    16   ar
    15    17    12   ar
    16    23    24    1
    17     3     4   ar
    18     7     6   am
    19    19    23    1
    20    19     1    1
    21    24    25   ar
    22    26    28   ar
    23    29    30   ar
    24     1     3   ar
    25     2     4   ar
    26     6     8    2
    27    12    13   ar
    28    14    15   ar
    29    16    17   ar
    30    19    20    2
    31    19    21    2
    32     7     9    1
