@<TRIPOS>MOLECULE
MolPort-020-293-027 CHEMBL3449890 MCULE-2698566815 PubChem-110265494
 26 29 0 0 0
SMALL
GASTEIGER

@<TRIPOS>ATOM
      1 C          10.4996   41.3330    5.7667 C.ar    1  UNL1        0.1339
      2 C           8.1922   41.1490    6.3348 C.ar    1  UNL1        0.0614
      3 C           8.1888   39.7975    5.9640 C.ar    1  UNL1        0.0149
      4 C           9.3641   39.2169    5.4891 C.ar    1  UNL1        0.0041
      5 C          10.5250   39.9837    5.3888 C.ar    1  UNL1        0.0345
      6 N           9.3386   41.8743    6.2270 N.ar    1  UNL1       -0.2348
      7 C           6.9544   41.8129    6.8486 C.3     1  UNL1        0.0563
      8 C           6.7238   41.4780    8.3232 C.3     1  UNL1        0.0780
      9 C           5.6227   43.5767    8.7027 C.3     1  UNL1        0.0721
     10 C           5.7829   43.9916    7.2427 C.3     1  UNL1        0.0178
     11 C           7.0234   43.3276    6.6549 C.3     1  UNL1        0.0087
     12 N           5.4945   42.1194    8.7989 N.3     1  UNL1       -0.2723
     13 C           5.2469   41.7365   10.1927 C.3     1  UNL1        0.0721
     14 C           3.9758   40.9062   10.3788 C.3     1  UNL1        0.0160
     15 C           2.9200   41.3991    9.4112 C.3     1  UNL1        0.0014
     16 C           2.8615   41.8100   10.8656 C.3     1  UNL1        0.0014
     17 N          11.6650   42.1656    5.6832 N.pl3   1  UNL1       -0.2680
     18 H          11.6389   42.8848    5.0114 H       1  UNL1        0.1565
     19 C          12.8635   42.0714    6.4651 C.ar    1  UNL1        0.2211
     20 C          15.0720   42.8179    6.8743 C.ar    1  UNL1        0.0634
     21 C          15.1898   41.9271    7.9394 C.ar    1  UNL1        0.0296
     22 C          14.1016   41.1108    8.2407 C.ar    1  UNL1        0.0634
     23 C          14.1848   40.1468    9.3684 C.3     1  UNL1        0.0522
     24 C          16.2090   43.7064    6.5195 C.3     1  UNL1        0.0522
     25 N          13.9176   42.8740    6.1599 N.ar    1  UNL1       -0.2179
     26 N          12.9641   41.1964    7.5031 N.ar    1  UNL1       -0.2179
@<TRIPOS>BOND
     1    19    17    1
     2    19    26   ar
     3     2     6   ar
     4     7     2    1
     5     7     8    1
     6     8    12    1
     7    13    12    1
     8    13    14    1
     9    14    15    1
    10    15    16    1
    11    16    14    1
    12     9    12    1
    13     9    10    1
    14    10    11    1
    15    11     7    1
    16     3     4   ar
    17     5     1   ar
    18    20    25   ar
    19    21    22   ar
    20    23    22    1
    21    24    20    1
    22    17     1    1
    23    19    25   ar
    24     1     6   ar
    25     2     3   ar
    26     4     5   ar
    27    20    21   ar
    28    22    26   ar
    29    17    18    1
@<TRIPOS>MOLECULE
MolPort-020-293-027 CHEMBL3449890 MCULE-2698566815 PubChem-110265494
 26 29 0 0 0
SMALL
GASTEIGER

@<TRIPOS>ATOM
      1 C          11.6191   41.2485    8.3834 C.ar    1  UNL1        0.1339
      2 C           9.3212   41.6830    8.8434 C.ar    1  UNL1        0.0614
      3 C           9.5270   41.4336   10.2071 C.ar    1  UNL1        0.0149
      4 C          10.8020   41.0875   10.6529 C.ar    1  UNL1        0.0041
      5 C          11.8537   40.9938    9.7414 C.ar    1  UNL1        0.0345
      6 N          10.3647   41.5845    7.9755 N.ar    1  UNL1       -0.2348
      7 C           7.9705   42.0565    8.3211 C.3     1  UNL1        0.0563
      8 C           6.8618   41.4530    9.1851 C.3     1  UNL1        0.0780
      9 C           5.3762   43.2677    8.6746 C.3     1  UNL1        0.0721
     10 C           6.4087   43.9360    7.7708 C.3     1  UNL1        0.0178
     11 C           7.8128   43.5749    8.2433 C.3     1  UNL1        0.0087
     12 N           5.5484   41.8122    8.6421 N.3     1  UNL1       -0.2723
     13 C           4.4952   41.1725    9.4373 C.3     1  UNL1        0.0721
     14 C           4.7846   41.1686   10.9393 C.3     1  UNL1        0.0160
     15 C           3.9301   40.1083   11.6022 C.3     1  UNL1        0.0014
     16 C           3.5269   41.5636   11.6862 C.3     1  UNL1        0.0014
     17 N          12.6651   41.1659    7.4049 N.pl3   1  UNL1       -0.2680
     18 H          12.5420   40.4989    6.6914 H       1  UNL1        0.1565
     19 C          13.8692   41.9426    7.3461 C.ar    1  UNL1        0.2211
     20 C          16.1118   42.2474    8.0389 C.ar    1  UNL1        0.0634
     21 C          16.2075   43.4028    7.2657 C.ar    1  UNL1        0.0296
     22 C          15.0909   43.8016    6.5339 C.ar    1  UNL1        0.0634
     23 C          15.1499   45.0275    5.6962 C.3     1  UNL1        0.0522
     24 C          17.2793   41.7872    8.8347 C.3     1  UNL1        0.0522
     25 N          14.9510   41.5417    8.0654 N.ar    1  UNL1       -0.2179
     26 N          13.9480   43.0692    6.5861 N.ar    1  UNL1       -0.2179
@<TRIPOS>BOND
     1    19    17    1
     2    19    26   ar
     3     2     6   ar
     4     7     2    1
     5     7     8    1
     6     8    12    1
     7    13    12    1
     8    13    14    1
     9    14    15    1
    10    15    16    1
    11    16    14    1
    12     9    12    1
    13     9    10    1
    14    10    11    1
    15    11     7    1
    16     3     4   ar
    17     5     1   ar
    18    20    25   ar
    19    21    22   ar
    20    23    22    1
    21    24    20    1
    22    17     1    1
    23    19    25   ar
    24     1     6   ar
    25     2     3   ar
    26     4     5   ar
    27    20    21   ar
    28    22    26   ar
    29    17    18    1
@<TRIPOS>MOLECULE
MolPort-020-293-027 CHEMBL3449890 MCULE-2698566815 PubChem-110265494
 26 29 0 0 0
SMALL
GASTEIGER

@<TRIPOS>ATOM
      1 C          10.6691   41.2300    5.6973 C.ar    1  UNL1        0.1339
      2 C           8.3500   41.0320    6.2101 C.ar    1  UNL1        0.0614
      3 C           8.3509   39.6956    5.7882 C.ar    1  UNL1        0.0149
      4 C           9.5344   39.1296    5.3160 C.ar    1  UNL1        0.0041
      5 C          10.6991   39.8959    5.2690 C.ar    1  UNL1        0.0345
      6 N           9.5001   41.7572    6.1537 N.ar    1  UNL1       -0.2348
      7 C           7.1034   41.6798    6.7231 C.3     1  UNL1        0.0563
      8 C           6.8942   41.3699    8.2063 C.3     1  UNL1        0.0780
      9 C           5.7524   43.4522    8.5550 C.3     1  UNL1        0.0721
     10 C           5.8896   43.8409    7.0855 C.3     1  UNL1        0.0178
     11 C           7.1382   43.1914    6.4986 C.3     1  UNL1        0.0087
     12 N           5.6562   41.9947    8.6815 N.3     1  UNL1       -0.2723
     13 C           5.4302   41.6348   10.0851 C.3     1  UNL1        0.0721
     14 C           4.1042   40.9100   10.3214 C.3     1  UNL1        0.0160
     15 C           3.0597   41.4763    9.3820 C.3     1  UNL1        0.0014
     16 C           3.0814   41.9042   10.8325 C.3     1  UNL1        0.0014
     17 N          11.8380   42.0614    5.6696 N.pl3   1  UNL1       -0.2680
     18 H          11.8510   42.7716    4.9880 H       1  UNL1        0.1565
     19 C          12.9897   41.9775    6.5201 C.ar    1  UNL1        0.2211
     20 C          14.0349   41.0211    8.4161 C.ar    1  UNL1        0.0634
     21 C          15.1798   41.7811    8.1847 C.ar    1  UNL1        0.0296
     22 C          15.1897   42.6433    7.0902 C.ar    1  UNL1        0.0634
     23 C          16.3903   43.4718    6.8071 C.3     1  UNL1        0.0522
     24 C          13.9828   40.0893    9.5725 C.3     1  UNL1        0.0522
     25 N          12.9661   41.1321    7.5845 N.ar    1  UNL1       -0.2179
     26 N          14.1013   42.7262    6.2815 N.ar    1  UNL1       -0.2179
@<TRIPOS>BOND
     1    19    17    1
     2    19    26   ar
     3     2     6   ar
     4     7     2    1
     5     7     8    1
     6     8    12    1
     7    13    12    1
     8    13    14    1
     9    14    15    1
    10    15    16    1
    11    16    14    1
    12     9    12    1
    13     9    10    1
    14    10    11    1
    15    11     7    1
    16     3     4   ar
    17     5     1   ar
    18    20    25   ar
    19    21    22   ar
    20    23    22    1
    21    24    20    1
    22    17     1    1
    23    19    25   ar
    24     1     6   ar
    25     2     3   ar
    26     4     5   ar
    27    20    21   ar
    28    22    26   ar
    29    17    18    1
@<TRIPOS>MOLECULE
MolPort-020-293-027 CHEMBL3449890 MCULE-2698566815 PubChem-110265494
 26 29 0 0 0
SMALL
GASTEIGER

@<TRIPOS>ATOM
      1 C          13.8899   40.5997    9.4766 C.ar    1  UNL1        0.1339
      2 C          11.6348   41.2632    9.8702 C.ar    1  UNL1        0.0614
      3 C          11.5706   40.4417   11.0038 C.ar    1  UNL1        0.0149
      4 C          12.6888   39.6932   11.3687 C.ar    1  UNL1        0.0041
      5 C          13.8538   39.7699   10.6054 C.ar    1  UNL1        0.0345
      6 N          12.7838   41.3195    9.1431 N.ar    1  UNL1       -0.2348
      7 C          10.4594   42.0827    9.4417 C.3     1  UNL1        0.0563
      8 C           9.1641   41.2743    9.5331 C.3     1  UNL1        0.0780
      9 C           7.8747   43.2520    9.9655 C.3     1  UNL1        0.0721
     10 C           9.1069   44.1474    9.8686 C.3     1  UNL1        0.0178
     11 C          10.3464   43.3585   10.2762 C.3     1  UNL1        0.0087
     12 N           8.0297   42.0886    9.0870 N.3     1  UNL1       -0.2723
     13 C           6.8046   41.2830    9.1137 C.3     1  UNL1        0.0721
     14 C           5.6614   41.9399    9.8891 C.3     1  UNL1        0.0160
     15 C           5.3041   41.0661   11.0734 C.3     1  UNL1        0.0014
     16 C           4.4431   41.0410    9.8301 C.3     1  UNL1        0.0014
     17 N          15.0622   40.7147    8.6575 N.pl3   1  UNL1       -0.2680
     18 H          15.6061   39.9001    8.5590 H       1  UNL1        0.1565
     19 C          15.5332   41.8792    7.9656 C.ar    1  UNL1        0.2211
     20 C          15.1407   43.5681    6.3545 C.ar    1  UNL1        0.0634
     21 C          16.3947   44.1203    6.6086 C.ar    1  UNL1        0.0296
     22 C          17.2026   43.5108    7.5663 C.ar    1  UNL1        0.0634
     23 C          18.5470   44.0672    7.8680 C.3     1  UNL1        0.0522
     24 C          14.2478   44.1871    5.3407 C.3     1  UNL1        0.0522
     25 N          14.7344   42.4636    7.0336 N.ar    1  UNL1       -0.2179
     26 N          16.7608   42.4077    8.2244 N.ar    1  UNL1       -0.2179
@<TRIPOS>BOND
     1    19    17    1
     2    19    26   ar
     3     2     6   ar
     4     7     2    1
     5     7     8    1
     6     8    12    1
     7    13    12    1
     8    13    14    1
     9    14    15    1
    10    15    16    1
    11    16    14    1
    12     9    12    1
    13     9    10    1
    14    10    11    1
    15    11     7    1
    16     3     4   ar
    17     5     1   ar
    18    20    25   ar
    19    21    22   ar
    20    23    22    1
    21    24    20    1
    22    17     1    1
    23    19    25   ar
    24     1     6   ar
    25     2     3   ar
    26     4     5   ar
    27    20    21   ar
    28    22    26   ar
    29    17    18    1
@<TRIPOS>MOLECULE
MolPort-020-293-027 CHEMBL3449890 MCULE-2698566815 PubChem-110265494
 26 29 0 0 0
SMALL
GASTEIGER

@<TRIPOS>ATOM
      1 C          10.3202   42.3497    8.6219 C.ar    1  UNL1        0.1339
      2 C           8.0860   43.1298    8.9044 C.ar    1  UNL1        0.0614
      3 C           8.4448   43.7875   10.0888 C.ar    1  UNL1        0.0149
      4 C           9.7636   43.7177   10.5357 C.ar    1  UNL1        0.0041
      5 C          10.7070   42.9977    9.8028 C.ar    1  UNL1        0.0345
      6 N           9.0261   42.4343    8.2085 N.ar    1  UNL1       -0.2348
      7 C           6.6830   43.1774    8.3883 C.3     1  UNL1        0.0563
      8 C           5.7034   42.5923    9.4070 C.3     1  UNL1        0.0780
      9 C           3.9334   44.0159    8.6312 C.3     1  UNL1        0.0721
     10 C           4.8268   44.6439    7.5648 C.3     1  UNL1        0.0178
     11 C           6.2794   44.6067    8.0271 C.3     1  UNL1        0.0087
     12 N           4.3392   42.6277    8.8716 N.3     1  UNL1       -0.2723
     13 C           3.4188   42.0027    9.8270 C.3     1  UNL1        0.0721
     14 C           4.0184   41.8265   11.2231 C.3     1  UNL1        0.0160
     15 C           3.9047   40.3714   11.6275 C.3     1  UNL1        0.0014
     16 C           2.9276   41.3862   12.1779 C.3     1  UNL1        0.0014
     17 N          11.2504   41.5961    7.8311 N.pl3   1  UNL1       -0.2680
     18 H          10.8897   40.8032    7.3724 H       1  UNL1        0.1565
     19 C          12.6450   41.8645    7.6314 C.ar    1  UNL1        0.2211
     20 C          14.8904   41.4552    8.2581 C.ar    1  UNL1        0.0634
     21 C          15.3382   42.3473    7.2858 C.ar    1  UNL1        0.0296
     22 C          14.3899   42.9895    6.4923 C.ar    1  UNL1        0.0634
     23 C          14.8243   43.9485    5.4436 C.3     1  UNL1        0.0522
     24 C          15.8686   40.7493    9.1259 C.3     1  UNL1        0.0522
     25 N          13.5593   41.2307    8.4130 N.ar    1  UNL1       -0.2179
     26 N          13.0678   42.7387    6.6774 N.ar    1  UNL1       -0.2179
@<TRIPOS>BOND
     1    19    17    1
     2    19    26   ar
     3     2     6   ar
     4     7     2    1
     5     7     8    1
     6     8    12    1
     7    13    12    1
     8    13    14    1
     9    14    15    1
    10    15    16    1
    11    16    14    1
    12     9    12    1
    13     9    10    1
    14    10    11    1
    15    11     7    1
    16     3     4   ar
    17     5     1   ar
    18    20    25   ar
    19    21    22   ar
    20    23    22    1
    21    24    20    1
    22    17     1    1
    23    19    25   ar
    24     1     6   ar
    25     2     3   ar
    26     4     5   ar
    27    20    21   ar
    28    22    26   ar
    29    17    18    1
@<TRIPOS>MOLECULE
MolPort-020-293-027 CHEMBL3449890 MCULE-2698566815 PubChem-110265494
 26 29 0 0 0
SMALL
GASTEIGER

@<TRIPOS>ATOM
      1 C          11.2415   41.5597    6.0503 C.ar    1  UNL1        0.1339
      2 C           9.3389   41.3793    7.4744 C.ar    1  UNL1        0.0614
      3 C           8.9216   40.2222    6.8027 C.ar    1  UNL1        0.0149
      4 C           9.6840   39.7369    5.7410 C.ar    1  UNL1        0.0041
      5 C          10.8480   40.4048    5.3608 C.ar    1  UNL1        0.0345
      6 N          10.4786   42.0116    7.0831 N.ar    1  UNL1       -0.2348
      7 C           8.5518   41.9355    8.6181 C.3     1  UNL1        0.0563
      8 C           7.0828   42.1212    8.2345 C.3     1  UNL1        0.0780
      9 C           6.3710   41.7641   10.4988 C.3     1  UNL1        0.0721
     10 C           7.8072   41.5878   10.9844 C.3     1  UNL1        0.0178
     11 C           8.6672   41.0392    9.8510 C.3     1  UNL1        0.0087
     12 N           6.3360   42.6883    9.3613 N.3     1  UNL1       -0.2723
     13 C           4.9453   42.9257    8.9607 C.3     1  UNL1        0.0721
     14 C           4.5765   44.4086    8.8930 C.3     1  UNL1        0.0160
     15 C           3.3345   44.5684    8.0412 C.3     1  UNL1        0.0014
     16 C           4.6945   44.8826    7.4588 C.3     1  UNL1        0.0014
     17 N          12.4292   42.2842    5.6999 N.pl3   1  UNL1       -0.2680
     18 H          12.3913   42.8047    4.8651 H       1  UNL1        0.1565
     19 C          13.6654   42.3376    6.4249 C.ar    1  UNL1        0.2211
     20 C          15.7772   43.3578    6.7439 C.ar    1  UNL1        0.0634
     21 C          16.0579   42.4802    7.7894 C.ar    1  UNL1        0.0296
     22 C          15.0983   41.5283    8.1278 C.ar    1  UNL1        0.0634
     23 C          15.3570   40.5731    9.2363 C.3     1  UNL1        0.0522
     24 C          16.7734   44.3879    6.3508 C.3     1  UNL1        0.0522
     25 N          14.5927   43.2715    6.0838 N.ar    1  UNL1       -0.2179
     26 N          13.9257   41.4737    7.4442 N.ar    1  UNL1       -0.2179
@<TRIPOS>BOND
     1    19    17    1
     2    19    26   ar
     3     2     6   ar
     4     7     2    1
     5     7     8    1
     6     8    12    1
     7    13    12    1
     8    13    14    1
     9    14    15    1
    10    15    16    1
    11    16    14    1
    12     9    12    1
    13     9    10    1
    14    10    11    1
    15    11     7    1
    16     3     4   ar
    17     5     1   ar
    18    20    25   ar
    19    21    22   ar
    20    23    22    1
    21    24    20    1
    22    17     1    1
    23    19    25   ar
    24     1     6   ar
    25     2     3   ar
    26     4     5   ar
    27    20    21   ar
    28    22    26   ar
    29    17    18    1
@<TRIPOS>MOLECULE
MolPort-020-293-027 CHEMBL3449890 MCULE-2698566815 PubChem-110265494
 26 29 0 0 0
SMALL
GASTEIGER

@<TRIPOS>ATOM
      1 C          13.1972   40.6980    8.9918 C.ar    1  UNL1        0.1339
      2 C          11.3510   41.0478   10.4580 C.ar    1  UNL1        0.0614
      3 C          11.9069   40.1702   11.3987 C.ar    1  UNL1        0.0149
      4 C          13.1261   39.5539   11.1202 C.ar    1  UNL1        0.0041
      5 C          13.7763   39.8161    9.9143 C.ar    1  UNL1        0.0345
      6 N          12.0061   41.2860    9.2893 N.ar    1  UNL1       -0.2348
      7 C          10.0452   41.7303   10.7147 C.3     1  UNL1        0.0563
      8 C           9.1186   41.6159    9.5031 C.3     1  UNL1        0.0780
      9 C           7.1666   41.6806   10.8984 C.3     1  UNL1        0.0721
     10 C           8.0054   41.8225   12.1656 C.3     1  UNL1        0.0178
     11 C           9.3629   41.1599   11.9579 C.3     1  UNL1        0.0087
     12 N           7.8553   42.3107    9.7679 N.3     1  UNL1       -0.2723
     13 C           7.0025   42.2534    8.5762 C.3     1  UNL1        0.0721
     14 C           7.0458   43.5303    7.7352 C.3     1  UNL1        0.0160
     15 C           7.1872   44.7228    8.6581 C.3     1  UNL1        0.0014
     16 C           5.8375   44.3821    8.0667 C.3     1  UNL1        0.0014
     17 N          13.8238   41.0020    7.7375 N.pl3   1  UNL1       -0.2680
     18 H          13.6281   40.3881    6.9931 H       1  UNL1        0.1565
     19 C          14.7022   42.0966    7.4427 C.ar    1  UNL1        0.2211
     20 C          16.8069   43.1357    7.7471 C.ar    1  UNL1        0.0634
     21 C          16.4276   44.1801    6.9061 C.ar    1  UNL1        0.0296
     22 C          15.1536   44.1448    6.3430 C.ar    1  UNL1        0.0634
     23 C          14.7089   45.2383    5.4405 C.3     1  UNL1        0.0522
     24 C          18.1567   43.1348    8.3685 C.3     1  UNL1        0.0522
     25 N          15.9424   42.1182    7.9992 N.ar    1  UNL1       -0.2179
     26 N          14.3179   43.1101    6.6190 N.ar    1  UNL1       -0.2179
@<TRIPOS>BOND
     1    19    17    1
     2    19    26   ar
     3     2     6   ar
     4     7     2    1
     5     7     8    1
     6     8    12    1
     7    13    12    1
     8    13    14    1
     9    14    15    1
    10    15    16    1
    11    16    14    1
    12     9    12    1
    13     9    10    1
    14    10    11    1
    15    11     7    1
    16     3     4   ar
    17     5     1   ar
    18    20    25   ar
    19    21    22   ar
    20    23    22    1
    21    24    20    1
    22    17     1    1
    23    19    25   ar
    24     1     6   ar
    25     2     3   ar
    26     4     5   ar
    27    20    21   ar
    28    22    26   ar
    29    17    18    1
@<TRIPOS>MOLECULE
MolPort-020-293-027 CHEMBL3449890 MCULE-2698566815 PubChem-110265494
 26 29 0 0 0
SMALL
GASTEIGER

@<TRIPOS>ATOM
      1 C          13.8098   40.4658    9.4069 C.ar    1  UNL1        0.1339
      2 C          11.4370   40.6385    9.2639 C.ar    1  UNL1        0.0614
      3 C          11.3011   40.1053   10.5528 C.ar    1  UNL1        0.0149
      4 C          12.4438   39.7511   11.2690 C.ar    1  UNL1        0.0041
      5 C          13.7036   39.9304   10.6977 C.ar    1  UNL1        0.0345
      6 N          12.6779   40.8031    8.7302 N.ar    1  UNL1       -0.2348
      7 C          10.2389   41.0316    8.4597 C.3     1  UNL1        0.0563
      8 C           9.9342   39.9885    7.3831 C.3     1  UNL1        0.0780
      9 C           7.5889   40.4936    7.4545 C.3     1  UNL1        0.0721
     10 C           7.7938   41.5732    8.5137 C.3     1  UNL1        0.0178
     11 C           9.0187   41.2369    9.3573 C.3     1  UNL1        0.0087
     12 N           8.7718   40.4050    6.5931 N.3     1  UNL1       -0.2723
     13 C           8.5307   39.4331    5.5217 C.3     1  UNL1        0.0721
     14 C           9.8147   38.8992    4.8844 C.3     1  UNL1        0.0160
     15 C          10.3103   39.9012    3.8625 C.3     1  UNL1        0.0014
     16 C           9.5722   38.6618    3.4078 C.3     1  UNL1        0.0014
     17 N          15.0807   40.6705    8.7734 N.pl3   1  UNL1       -0.2680
     18 H          15.7209   39.9248    8.8309 H       1  UNL1        0.1565
     19 C          15.5263   41.8358    8.0661 C.ar    1  UNL1        0.2211
     20 C          15.0859   43.5102    6.4522 C.ar    1  UNL1        0.0634
     21 C          16.3381   44.0777    6.6801 C.ar    1  UNL1        0.0296
     22 C          17.1700   43.4830    7.6266 C.ar    1  UNL1        0.0634
     23 C          18.5134   44.0559    7.9005 C.3     1  UNL1        0.0522
     24 C          14.1680   44.1131    5.4512 C.3     1  UNL1        0.0522
     25 N          14.7042   42.4056    7.1452 N.ar    1  UNL1       -0.2179
     26 N          16.7524   42.3792    8.2993 N.ar    1  UNL1       -0.2179
@<TRIPOS>BOND
     1    19    17    1
     2    19    26   ar
     3     2     6   ar
     4     7     2    1
     5     7     8    1
     6     8    12    1
     7    13    12    1
     8    13    14    1
     9    14    15    1
    10    15    16    1
    11    16    14    1
    12     9    12    1
    13     9    10    1
    14    10    11    1
    15    11     7    1
    16     3     4   ar
    17     5     1   ar
    18    20    25   ar
    19    21    22   ar
    20    23    22    1
    21    24    20    1
    22    17     1    1
    23    19    25   ar
    24     1     6   ar
    25     2     3   ar
    26     4     5   ar
    27    20    21   ar
    28    22    26   ar
    29    17    18    1
@<TRIPOS>MOLECULE
MolPort-020-293-027 CHEMBL3449890 MCULE-2698566815 PubChem-110265494
 26 29 0 0 0
SMALL
GASTEIGER

@<TRIPOS>ATOM
      1 C          11.1216   41.4379    6.3506 C.ar    1  UNL1        0.1339
      2 C           9.3361   41.2299    7.9157 C.ar    1  UNL1        0.0614
      3 C           8.8563   40.0956    7.2469 C.ar    1  UNL1        0.0149
      4 C           9.5277   39.6356    6.1148 C.ar    1  UNL1        0.0041
      5 C          10.6641   40.3060    5.6623 C.ar    1  UNL1        0.0345
      6 N          10.4471   41.8652    7.4530 N.ar    1  UNL1       -0.2348
      7 C           8.6472   41.7585    9.1334 C.3     1  UNL1        0.0563
      8 C           7.2207   41.2161    9.2359 C.3     1  UNL1        0.0780
      9 C           7.2682   41.3401   11.6325 C.3     1  UNL1        0.0721
     10 C           8.6841   41.9098   11.6334 C.3     1  UNL1        0.0178
     11 C           9.4340   41.4198   10.3994 C.3     1  UNL1        0.0087
     12 N           6.5575   41.7647   10.4225 N.3     1  UNL1       -0.2723
     13 C           5.1700   41.2925   10.4736 C.3     1  UNL1        0.0721
     14 C           4.4268   41.4433    9.1452 C.3     1  UNL1        0.0160
     15 C           3.6234   42.7269    9.1738 C.3     1  UNL1        0.0014
     16 C           2.9348   41.4004    9.4056 C.3     1  UNL1        0.0014
     17 N          12.2846   42.1637    5.9275 N.pl3   1  UNL1       -0.2680
     18 H          12.2047   42.6579    5.0798 H       1  UNL1        0.1565
     19 C          13.5499   42.2526    6.5966 C.ar    1  UNL1        0.2211
     20 C          15.0222   41.4192    8.2519 C.ar    1  UNL1        0.0634
     21 C          15.9698   42.3832    7.9131 C.ar    1  UNL1        0.0296
     22 C          15.6631   43.2800    6.8917 C.ar    1  UNL1        0.0634
     23 C          16.6451   44.3237    6.4988 C.3     1  UNL1        0.0522
     24 C          15.3093   40.4438    9.3355 C.3     1  UNL1        0.0522
     25 N          13.8358   41.3712    7.5915 N.ar    1  UNL1       -0.2179
     26 N          14.4660   43.1998    6.2548 N.ar    1  UNL1       -0.2179
@<TRIPOS>BOND
     1    19    17    1
     2    19    26   ar
     3     2     6   ar
     4     7     2    1
     5     7     8    1
     6     8    12    1
     7    13    12    1
     8    13    14    1
     9    14    15    1
    10    15    16    1
    11    16    14    1
    12     9    12    1
    13     9    10    1
    14    10    11    1
    15    11     7    1
    16     3     4   ar
    17     5     1   ar
    18    20    25   ar
    19    21    22   ar
    20    23    22    1
    21    24    20    1
    22    17     1    1
    23    19    25   ar
    24     1     6   ar
    25     2     3   ar
    26     4     5   ar
    27    20    21   ar
    28    22    26   ar
    29    17    18    1
@<TRIPOS>MOLECULE
MolPort-020-293-027 CHEMBL3449890 MCULE-2698566815 PubChem-110265494
 26 29 0 0 0
SMALL
GASTEIGER

@<TRIPOS>ATOM
      1 C           9.5977   39.5686    7.6777 C.ar    1  UNL1        0.1339
      2 C           8.2034   41.4010    7.0622 C.ar    1  UNL1        0.0614
      3 C           9.1142   41.7855    6.0689 C.ar    1  UNL1        0.0149
      4 C          10.2800   41.0426    5.8872 C.ar    1  UNL1        0.0041
      5 C          10.5260   39.9302    6.6919 C.ar    1  UNL1        0.0345
      6 N           8.4678   40.3115    7.8335 N.ar    1  UNL1       -0.2348
      7 C           6.9408   42.1689    7.2923 C.3     1  UNL1        0.0563
      8 C           6.0624   41.4801    8.3382 C.3     1  UNL1        0.0780
      9 C           5.1281   43.5767    9.0400 C.3     1  UNL1        0.0721
     10 C           5.9452   44.3524    8.0104 C.3     1  UNL1        0.0178
     11 C           7.2422   43.6056    7.7182 C.3     1  UNL1        0.0087
     12 N           4.8216   42.2365    8.5307 N.3     1  UNL1       -0.2723
     13 C           3.9580   41.5317    9.4837 C.3     1  UNL1        0.0721
     14 C           4.2097   41.9266   10.9398 C.3     1  UNL1        0.0160
     15 C           3.7674   40.7923   11.8408 C.3     1  UNL1        0.0014
     16 C           2.8829   42.0067   11.6669 C.3     1  UNL1        0.0014
     17 N           9.8022   38.4342    8.5319 N.pl3   1  UNL1       -0.2680
     18 H           9.0407   37.8175    8.6264 H       1  UNL1        0.1565
     19 C          10.9877   38.0948    9.2641 C.ar    1  UNL1        0.2211
     20 C          12.9321   38.8149   10.4056 C.ar    1  UNL1        0.0634
     21 C          13.2787   37.4926   10.6765 C.ar    1  UNL1        0.0296
     22 C          12.4377   36.4820   10.2152 C.ar    1  UNL1        0.0634
     23 C          12.7699   35.0585   10.4821 C.3     1  UNL1        0.0522
     24 C          13.8016   39.9229   10.8794 C.3     1  UNL1        0.0522
     25 N          11.7992   39.0912    9.7081 N.ar    1  UNL1       -0.2179
     26 N          11.3136   36.7984    9.5213 N.ar    1  UNL1       -0.2179
@<TRIPOS>BOND
     1    19    17    1
     2    19    26   ar
     3     2     6   ar
     4     7     2    1
     5     7     8    1
     6     8    12    1
     7    13    12    1
     8    13    14    1
     9    14    15    1
    10    15    16    1
    11    16    14    1
    12     9    12    1
    13     9    10    1
    14    10    11    1
    15    11     7    1
    16     3     4   ar
    17     5     1   ar
    18    20    25   ar
    19    21    22   ar
    20    23    22    1
    21    24    20    1
    22    17     1    1
    23    19    25   ar
    24     1     6   ar
    25     2     3   ar
    26     4     5   ar
    27    20    21   ar
    28    22    26   ar
    29    17    18    1
