@<TRIPOS>MOLECULE
MolPort-019-935-278 67896675 CSSS00159302457 MCULE-6991765842 PubChem-56774740 ZINC000067896675 ZINC67896675
 37 40 0 0 0
SMALL
GASTEIGER

@<TRIPOS>ATOM
      1 C           6.3629   40.9791    8.0717 C.3     1  UNL1        0.1532
      2 O           5.6885   40.2357    7.1006 O.3     1  UNL1       -0.3783
      3 H           4.9107   40.7297    6.7975 H       1  UNL1        0.2109
      4 C           6.8891   42.3051    7.5009 C.3     1  UNL1        0.1362
      5 C           5.8811   43.4235    7.8418 C.3     1  UNL1        0.1653
      6 C           7.2854   44.7241    9.0323 C.3     1  UNL1        0.2272
      7 C           8.3968   43.7291    8.9210 C.2     1  UNL1        0.2562
      8 O           6.5057   44.6828    7.8615 O.3     1  UNL1       -0.3426
      9 O           9.4617   43.8830    9.5769 O.2     1  UNL1       -0.2721
     10 N           8.2282   42.6152    8.0310 N.am    1  UNL1       -0.2697
     11 C           9.4007   42.0046    7.4074 C.3     1  UNL1        0.1233
     12 C          11.7083   41.4299    8.3650 C.ar    1  UNL1        0.1363
     13 C          10.2920   41.3977    8.4498 C.ar    1  UNL1        0.0317
     14 C           9.6832   40.8728    9.5973 C.ar    1  UNL1        0.0004
     15 C          10.4540   40.3950   10.6586 C.ar    1  UNL1       -0.0001
     16 C          11.8453   40.4498   10.5878 C.ar    1  UNL1        0.0031
     17 C          12.4652   40.9661    9.4488 C.ar    1  UNL1        0.0366
     18 C          13.4047   42.9190    7.3074 C.3     1  UNL1        0.2525
     19 O          12.4134   41.9035    7.2501 O.3     1  UNL1       -0.4717
     20 C           5.4600   41.2064    9.2448 C.ar    1  UNL1        0.0060
     21 C           4.0752   41.1999    9.0548 C.ar    1  UNL1       -0.0006
     22 C           3.2176   41.4045   10.1393 C.ar    1  UNL1        0.0144
     23 C           3.7365   41.6200   11.4255 C.ar    1  UNL1        0.0505
     24 C           5.1230   41.6233   11.6120 C.ar    1  UNL1        0.0144
     25 C           5.9828   41.4198   10.5289 C.ar    1  UNL1       -0.0006
     26 C           1.4920   42.1714   12.5424 C.2     1  UNL1        0.2495
     27 O           0.8961   42.3753   11.4490 O.2     1  UNL1       -0.2698
     28 N           2.8864   41.8269   12.5621 N.am    1  UNL1       -0.2804
     29 H           3.3021   41.7219   13.4484 H       1  UNL1        0.1552
     30 C           0.7527   42.2983   13.8116 C.ar    1  UNL1        0.0537
     31 C           1.1810   43.2042   14.7941 C.ar    1  UNL1        0.0052
     32 C           0.4776   43.3275   15.9952 C.ar    1  UNL1        0.0104
     33 C          -0.6609   42.5466   16.2237 C.ar    1  UNL1        0.0685
     34 C          -1.0957   41.6424   15.2501 C.ar    1  UNL1        0.0104
     35 C          -0.3920   41.5195   14.0484 C.ar    1  UNL1        0.0052
     36 C          -1.3744   42.6687   17.4627 C.1     1  UNL1        0.1004
     37 N          -1.9455   42.7665   18.4652 N.1     1  UNL1       -0.1908
@<TRIPOS>BOND
     1    18    19    1
     2    12    19    1
     3    13    14   ar
     4    11    13    1
     5    11    10    1
     6     4    10    1
     7     4     5    1
     8     4     1    1
     9     5     8    1
    10     6     8    1
    11     6     7    1
    12     7    10   am
    13     1     2    1
    14     1    20    1
    15    21    22   ar
    16    23    28    1
    17    23    24   ar
    18    26    30    1
    19    31    32   ar
    20    33    34   ar
    21    33    36    1
    22    35    30   ar
    23    25    20   ar
    24    15    16   ar
    25    17    12   ar
    26    28    26   am
    27    12    13   ar
    28     7     9    2
    29    20    21   ar
    30    22    23   ar
    31    26    27    2
    32    30    31   ar
    33    32    33   ar
    34    34    35   ar
    35    24    25   ar
    36    14    15   ar
    37    16    17   ar
    38    36    37    3
    39     2     3    1
    40    28    29    1
@<TRIPOS>MOLECULE
MolPort-019-935-278 67896675 CSSS00159302457 MCULE-6991765842 PubChem-56774740 ZINC000067896675 ZINC67896675
 37 40 0 0 0
SMALL
GASTEIGER

@<TRIPOS>ATOM
      1 C           6.9790   41.4743    8.1175 C.3     1  UNL1        0.1532
      2 O           6.4201   41.7637    6.8707 O.3     1  UNL1       -0.3783
      3 H           6.1823   42.7034    6.8332 H       1  UNL1        0.2109
      4 C           8.2802   42.2586    8.3468 C.3     1  UNL1        0.1362
      5 C           7.9214   43.6745    8.8465 C.3     1  UNL1        0.1653
      6 C           9.0086   43.5685   10.8182 C.3     1  UNL1        0.2272
      7 C           9.3929   42.1398   10.5975 C.2     1  UNL1        0.2562
      8 O           8.9793   44.2382    9.5810 O.3     1  UNL1       -0.3426
      9 O           9.9322   41.4722   11.5203 O.2     1  UNL1       -0.2721
     10 N           9.1562   41.5619    9.3048 N.am    1  UNL1       -0.2697
     11 C          10.0171   40.4812    8.8278 C.3     1  UNL1        0.1233
     12 C          12.5220   41.0130    8.9505 C.ar    1  UNL1        0.1363
     13 C          11.2860   41.0371    8.2534 C.ar    1  UNL1        0.0317
     14 C          11.2504   41.5019    6.9321 C.ar    1  UNL1        0.0004
     15 C          12.4167   41.9276    6.2939 C.ar    1  UNL1       -0.0001
     16 C          13.6358   41.8801    6.9686 C.ar    1  UNL1        0.0031
     17 C          13.6853   41.4234    8.2866 C.ar    1  UNL1        0.0366
     18 C          13.6517   39.6879   10.7341 C.3     1  UNL1        0.2525
     19 O          12.6596   40.5981   10.2822 O.3     1  UNL1       -0.4717
     20 C           5.9743   41.7515    9.1930 C.ar    1  UNL1        0.0060
     21 C           4.9202   42.6327    8.9352 C.ar    1  UNL1       -0.0006
     22 C           3.9702   42.8984    9.9254 C.ar    1  UNL1        0.0144
     23 C           4.0658   42.2870   11.1851 C.ar    1  UNL1        0.0505
     24 C           5.1209   41.4038   11.4385 C.ar    1  UNL1        0.0144
     25 C           6.0727   41.1371   10.4501 C.ar    1  UNL1       -0.0006
     26 C           1.6838   42.3446   12.1401 C.2     1  UNL1        0.2495
     27 O           1.1460   41.9743   11.0603 O.2     1  UNL1       -0.2698
     28 N           3.1058   42.5312   12.2223 N.am    1  UNL1       -0.2804
     29 H           3.4582   42.8613   13.0803 H       1  UNL1        0.1552
     30 C           0.8438   42.5984   13.3247 C.ar    1  UNL1        0.0537
     31 C          -0.0076   41.5977   13.8177 C.ar    1  UNL1        0.0052
     32 C          -0.8005   41.8369   14.9432 C.ar    1  UNL1        0.0104
     33 C          -0.7479   43.0787   15.5861 C.ar    1  UNL1        0.0685
     34 C           0.0982   44.0812   15.1028 C.ar    1  UNL1        0.0104
     35 C           0.8916   43.8414   13.9770 C.ar    1  UNL1        0.0052
     36 C          -1.5715   43.3239   16.7354 C.1     1  UNL1        0.1004
     37 N          -2.2402   43.5193   17.6603 N.1     1  UNL1       -0.1908
@<TRIPOS>BOND
     1    18    19    1
     2    12    19    1
     3    13    14   ar
     4    11    13    1
     5    11    10    1
     6     4    10    1
     7     4     5    1
     8     4     1    1
     9     5     8    1
    10     6     8    1
    11     6     7    1
    12     7    10   am
    13     1     2    1
    14     1    20    1
    15    21    22   ar
    16    23    28    1
    17    23    24   ar
    18    26    30    1
    19    31    32   ar
    20    33    34   ar
    21    33    36    1
    22    35    30   ar
    23    25    20   ar
    24    15    16   ar
    25    17    12   ar
    26    28    26   am
    27    12    13   ar
    28     7     9    2
    29    20    21   ar
    30    22    23   ar
    31    26    27    2
    32    30    31   ar
    33    32    33   ar
    34    34    35   ar
    35    24    25   ar
    36    14    15   ar
    37    16    17   ar
    38    36    37    3
    39     2     3    1
    40    28    29    1
@<TRIPOS>MOLECULE
MolPort-019-935-278 67896675 CSSS00159302457 MCULE-6991765842 PubChem-56774740 ZINC000067896675 ZINC67896675
 37 40 0 0 0
SMALL
GASTEIGER

@<TRIPOS>ATOM
      1 C           6.9640   41.7348    8.0403 C.3     1  UNL1        0.1532
      2 O           6.3012   41.5488    6.8252 O.3     1  UNL1       -0.3783
      3 H           5.7719   42.3359    6.6218 H       1  UNL1        0.2109
      4 C           7.9495   42.9116    7.9698 C.3     1  UNL1        0.1362
      5 C           7.2965   44.1425    8.6344 C.3     1  UNL1        0.1653
      6 C           8.8453   44.4578   10.2415 C.3     1  UNL1        0.2272
      7 C           9.6002   43.2311    9.8381 C.2     1  UNL1        0.2562
      8 O           8.2687   45.0450    9.1000 O.3     1  UNL1       -0.3426
      9 O          10.5542   42.8059   10.5432 O.2     1  UNL1       -0.2721
     10 N           9.2275   42.5712    8.6187 N.am    1  UNL1       -0.2697
     11 C          10.2324   41.8233    7.8656 C.3     1  UNL1        0.1233
     12 C           9.5344   39.3648    7.6630 C.ar    1  UNL1        0.1363
     13 C          10.2654   40.3925    8.3138 C.ar    1  UNL1        0.0317
     14 C          11.1403   40.0599    9.3564 C.ar    1  UNL1        0.0004
     15 C          11.3081   38.7312    9.7504 C.ar    1  UNL1       -0.0001
     16 C          10.6104   37.7178    9.0948 C.ar    1  UNL1        0.0031
     17 C           9.7322   38.0352    8.0573 C.ar    1  UNL1        0.0366
     18 C           8.9609   39.7034    5.2609 C.3     1  UNL1        0.2525
     19 O           8.6117   39.5947    6.6332 O.3     1  UNL1       -0.4717
     20 C           5.9593   41.9252    9.1346 C.ar    1  UNL1        0.0060
     21 C           4.7781   42.6229    8.8663 C.ar    1  UNL1       -0.0006
     22 C           3.8269   42.8049    9.8740 C.ar    1  UNL1        0.0144
     23 C           4.0482   42.2926   11.1619 C.ar    1  UNL1        0.0505
     24 C           5.2305   41.5928   11.4258 C.ar    1  UNL1        0.0144
     25 C           6.1837   41.4102   10.4199 C.ar    1  UNL1       -0.0006
     26 C           1.6680   42.2862   12.1233 C.2     1  UNL1        0.2495
     27 O           1.1259   42.0129   11.0170 O.2     1  UNL1       -0.2698
     28 N           3.0915   42.4548   12.2181 N.am    1  UNL1       -0.2804
     29 H           3.4475   42.7082   13.1003 H       1  UNL1        0.1552
     30 C           0.8317   42.4444   13.3269 C.ar    1  UNL1        0.0537
     31 C           0.9371   43.5997   14.1167 C.ar    1  UNL1        0.0052
     32 C           0.1411   43.7514   15.2552 C.ar    1  UNL1        0.0104
     33 C          -0.7680   42.7495   15.6130 C.ar    1  UNL1        0.0685
     34 C          -0.8806   41.5958   14.8316 C.ar    1  UNL1        0.0104
     35 C          -0.0844   41.4445   13.6924 C.ar    1  UNL1        0.0052
     36 C          -1.5761   42.9045   16.7886 C.1     1  UNL1        0.1004
     37 N          -2.2239   43.0315   17.7400 N.1     1  UNL1       -0.1908
@<TRIPOS>BOND
     1    18    19    1
     2    12    19    1
     3    13    14   ar
     4    11    13    1
     5    11    10    1
     6     4    10    1
     7     4     5    1
     8     4     1    1
     9     5     8    1
    10     6     8    1
    11     6     7    1
    12     7    10   am
    13     1     2    1
    14     1    20    1
    15    21    22   ar
    16    23    28    1
    17    23    24   ar
    18    26    30    1
    19    31    32   ar
    20    33    34   ar
    21    33    36    1
    22    35    30   ar
    23    25    20   ar
    24    15    16   ar
    25    17    12   ar
    26    28    26   am
    27    12    13   ar
    28     7     9    2
    29    20    21   ar
    30    22    23   ar
    31    26    27    2
    32    30    31   ar
    33    32    33   ar
    34    34    35   ar
    35    24    25   ar
    36    14    15   ar
    37    16    17   ar
    38    36    37    3
    39     2     3    1
    40    28    29    1
@<TRIPOS>MOLECULE
MolPort-019-935-278 67896675 CSSS00159302457 MCULE-6991765842 PubChem-56774740 ZINC000067896675 ZINC67896675
 37 40 0 0 0
SMALL
GASTEIGER

@<TRIPOS>ATOM
      1 C          16.8070   40.3277    9.2539 C.3     1  UNL1        0.1532
      2 O          17.3913   41.0810   10.2745 O.3     1  UNL1       -0.3783
      3 H          17.0392   40.7930   11.1312 H       1  UNL1        0.2109
      4 C          17.1549   38.8368    9.3848 C.3     1  UNL1        0.1362
      5 C          18.4394   38.7022   10.2305 C.3     1  UNL1        0.1653
      6 C          17.5645   37.4469   11.8857 C.3     1  UNL1        0.2272
      7 C          16.1905   37.5249   11.2996 C.2     1  UNL1        0.2562
      8 O          18.5133   37.4407   10.8464 O.3     1  UNL1       -0.3426
      9 O          15.1963   37.0875   11.9386 O.2     1  UNL1       -0.2721
     10 N          16.0402   38.0840    9.9858 N.am    1  UNL1       -0.2697
     11 C          14.9373   37.6424    9.1344 C.3     1  UNL1        0.1233
     12 C          13.7599   35.3760    9.3578 C.ar    1  UNL1        0.1363
     13 C          14.9109   36.1455    9.0458 C.ar    1  UNL1        0.0317
     14 C          16.0475   35.5064    8.5333 C.ar    1  UNL1        0.0004
     15 C          16.0534   34.1275    8.3158 C.ar    1  UNL1       -0.0001
     16 C          14.9147   33.3739    8.5973 C.ar    1  UNL1        0.0031
     17 C          13.7768   33.9969    9.1124 C.ar    1  UNL1        0.0366
     18 C          11.9643   35.4296   11.0859 C.3     1  UNL1        0.2525
     19 O          12.5861   35.9129    9.9041 O.3     1  UNL1       -0.4717
     20 C          15.3255   40.5476    9.2546 C.ar    1  UNL1        0.0060
     21 C          14.7164   41.1134    8.1309 C.ar    1  UNL1       -0.0006
     22 C          13.3343   41.3204    8.1119 C.ar    1  UNL1        0.0144
     23 C          12.5468   40.9655    9.2182 C.ar    1  UNL1        0.0505
     24 C          13.1598   40.3972   10.3401 C.ar    1  UNL1        0.0144
     25 C          14.5420   40.1899   10.3617 C.ar    1  UNL1       -0.0006
     26 C          10.1629   40.5178    8.3780 C.2     1  UNL1        0.2495
     27 O          10.5363   39.7279    7.4675 O.2     1  UNL1       -0.2698
     28 N          11.1255   41.1575    9.2311 N.am    1  UNL1       -0.2804
     29 H          10.7727   41.7942    9.8940 H       1  UNL1        0.1552
     30 C           8.7265   40.7949    8.5605 C.ar    1  UNL1        0.0537
     31 C           7.8038   40.4403    7.5644 C.ar    1  UNL1        0.0052
     32 C           6.4418   40.6990    7.7395 C.ar    1  UNL1        0.0104
     33 C           5.9907   41.3136    8.9129 C.ar    1  UNL1        0.0685
     34 C           6.9025   41.6693    9.9112 C.ar    1  UNL1        0.0104
     35 C           8.2650   41.4100    9.7358 C.ar    1  UNL1        0.0052
     36 C           4.5924   41.5870    9.0844 C.1     1  UNL1        0.1004
     37 N           3.4654   41.8126    9.2244 N.1     1  UNL1       -0.1908
@<TRIPOS>BOND
     1    18    19    1
     2    12    19    1
     3    13    14   ar
     4    11    13    1
     5    11    10    1
     6     4    10    1
     7     4     5    1
     8     4     1    1
     9     5     8    1
    10     6     8    1
    11     6     7    1
    12     7    10   am
    13     1     2    1
    14     1    20    1
    15    21    22   ar
    16    23    28    1
    17    23    24   ar
    18    26    30    1
    19    31    32   ar
    20    33    34   ar
    21    33    36    1
    22    35    30   ar
    23    25    20   ar
    24    15    16   ar
    25    17    12   ar
    26    28    26   am
    27    12    13   ar
    28     7     9    2
    29    20    21   ar
    30    22    23   ar
    31    26    27    2
    32    30    31   ar
    33    32    33   ar
    34    34    35   ar
    35    24    25   ar
    36    14    15   ar
    37    16    17   ar
    38    36    37    3
    39     2     3    1
    40    28    29    1
@<TRIPOS>MOLECULE
MolPort-019-935-278 67896675 CSSS00159302457 MCULE-6991765842 PubChem-56774740 ZINC000067896675 ZINC67896675
 37 40 0 0 0
SMALL
GASTEIGER

@<TRIPOS>ATOM
      1 C          16.6721   40.2491    9.3424 C.3     1  UNL1        0.1532
      2 O          17.2636   40.9325   10.4071 O.3     1  UNL1       -0.3783
      3 H          16.8825   40.6209   11.2429 H       1  UNL1        0.2109
      4 C          16.9589   38.7412    9.4124 C.3     1  UNL1        0.1362
      5 C          18.2616   38.5233   10.2115 C.3     1  UNL1        0.1653
      6 C          17.3843   37.2496   11.8513 C.3     1  UNL1        0.2272
      7 C          15.9976   37.4059   11.3126 C.2     1  UNL1        0.2562
      8 O          18.2996   37.2392   10.7825 O.3     1  UNL1       -0.3426
      9 O          15.0055   36.9891   11.9683 O.2     1  UNL1       -0.2721
     10 N          15.8315   38.0159   10.0236 N.am    1  UNL1       -0.2697
     11 C          14.6849   37.6510    9.1938 C.3     1  UNL1        0.1233
     12 C          15.7263   35.5280    8.2034 C.ar    1  UNL1        0.1363
     13 C          14.6858   36.1769    8.9180 C.ar    1  UNL1        0.0317
     14 C          13.6600   35.4105    9.4866 C.ar    1  UNL1        0.0004
     15 C          13.6590   34.0196    9.3677 C.ar    1  UNL1       -0.0001
     16 C          14.6940   33.3787    8.6883 C.ar    1  UNL1        0.0031
     17 C          15.7202   34.1301    8.1132 C.ar    1  UNL1        0.0366
     18 C          17.9629   35.5742    7.1039 C.3     1  UNL1        0.2525
     19 O          16.7787   36.2039    7.5709 O.3     1  UNL1       -0.4717
     20 C          15.2006   40.5276    9.3244 C.ar    1  UNL1        0.0060
     21 C          14.6285   41.1156    8.1926 C.ar    1  UNL1       -0.0006
     22 C          13.2561   41.3772    8.1562 C.ar    1  UNL1        0.0144
     23 C          12.4413   41.0553    9.2528 C.ar    1  UNL1        0.0505
     24 C          13.0172   40.4646   10.3827 C.ar    1  UNL1        0.0144
     25 C          14.3898   40.2028   10.4219 C.ar    1  UNL1       -0.0006
     26 C          10.3741   42.5559    9.5061 C.2     1  UNL1        0.2495
     27 O          11.0439   43.5772    9.8234 O.2     1  UNL1       -0.2698
     28 N          11.0287   41.3035    9.2477 N.am    1  UNL1       -0.2804
     29 H          10.4469   40.5354    9.0461 H       1  UNL1        0.1552
     30 C           8.9058   42.6463    9.4103 C.ar    1  UNL1        0.0537
     31 C           8.2892   43.8695    9.1052 C.ar    1  UNL1        0.0052
     32 C           6.8976   43.9541    9.0101 C.ar    1  UNL1        0.0104
     33 C           6.1107   42.8158    9.2183 C.ar    1  UNL1        0.0685
     34 C           6.7163   41.5928    9.5216 C.ar    1  UNL1        0.0104
     35 C           8.1086   41.5084    9.6162 C.ar    1  UNL1        0.0052
     36 C           4.6815   42.9091    9.1300 C.1     1  UNL1        0.1004
     37 N           3.5284   42.9895    9.0609 N.1     1  UNL1       -0.1908
@<TRIPOS>BOND
     1    18    19    1
     2    12    19    1
     3    13    14   ar
     4    11    13    1
     5    11    10    1
     6     4    10    1
     7     4     5    1
     8     4     1    1
     9     5     8    1
    10     6     8    1
    11     6     7    1
    12     7    10   am
    13     1     2    1
    14     1    20    1
    15    21    22   ar
    16    23    28    1
    17    23    24   ar
    18    26    30    1
    19    31    32   ar
    20    33    34   ar
    21    33    36    1
    22    35    30   ar
    23    25    20   ar
    24    15    16   ar
    25    17    12   ar
    26    28    26   am
    27    12    13   ar
    28     7     9    2
    29    20    21   ar
    30    22    23   ar
    31    26    27    2
    32    30    31   ar
    33    32    33   ar
    34    34    35   ar
    35    24    25   ar
    36    14    15   ar
    37    16    17   ar
    38    36    37    3
    39     2     3    1
    40    28    29    1
@<TRIPOS>MOLECULE
MolPort-019-935-278 67896675 CSSS00159302457 MCULE-6991765842 PubChem-56774740 ZINC000067896675 ZINC67896675
 37 40 0 0 0
SMALL
GASTEIGER

@<TRIPOS>ATOM
      1 C           6.7582   41.2895    8.0879 C.3     1  UNL1        0.1532
      2 O           6.2001   41.6104    6.8485 O.3     1  UNL1       -0.3783
      3 H           6.0206   42.5630    6.8116 H       1  UNL1        0.2109
      4 C           8.1088   41.9920    8.2960 C.3     1  UNL1        0.1362
      5 C           7.8470   43.4166    8.8298 C.3     1  UNL1        0.1653
      6 C           8.9763   43.2098   10.7695 C.3     1  UNL1        0.2272
      7 C           9.2700   41.7656   10.5137 C.2     1  UNL1        0.2562
      8 O           8.9547   43.9035    9.5454 O.3     1  UNL1       -0.3426
      9 O           9.7926   41.0502   11.4099 O.2     1  UNL1       -0.2721
     10 N           8.9666   41.2271    9.2178 N.am    1  UNL1       -0.2697
     11 C           9.7498   40.1073    8.6992 C.3     1  UNL1        0.1233
     12 C          10.9854   41.1572    6.7134 C.ar    1  UNL1        0.1363
     13 C           9.9985   40.2779    7.2301 C.ar    1  UNL1        0.0317
     14 C           9.2871   39.4498    6.3518 C.ar    1  UNL1        0.0004
     15 C           9.5483   39.4728    4.9807 C.ar    1  UNL1       -0.0001
     16 C          10.5355   40.3171    4.4746 C.ar    1  UNL1        0.0031
     17 C          11.2489   41.1506    5.3375 C.ar    1  UNL1        0.0366
     18 C          13.1472   42.0908    7.5311 C.3     1  UNL1        0.2525
     19 O          11.7279   42.0473    7.5013 O.3     1  UNL1       -0.4717
     20 C           5.7885   41.6308    9.1770 C.ar    1  UNL1        0.0060
     21 C           4.7567   42.5372    8.9164 C.ar    1  UNL1       -0.0006
     22 C           3.8394   42.8628    9.9193 C.ar    1  UNL1        0.0144
     23 C           3.9456   42.2866   11.1947 C.ar    1  UNL1        0.0505
     24 C           4.9781   41.3780   11.4509 C.ar    1  UNL1        0.0144
     25 C           5.8974   41.0514   10.4498 C.ar    1  UNL1       -0.0006
     26 C           1.5979   42.3804   12.2285 C.2     1  UNL1        0.2495
     27 O           1.0288   41.9247   11.1985 O.2     1  UNL1       -0.2698
     28 N           3.0186   42.5925   12.2455 N.am    1  UNL1       -0.2804
     29 H           3.3953   42.9892   13.0640 H       1  UNL1        0.1552
     30 C           0.7958   42.7082   13.4212 C.ar    1  UNL1        0.0537
     31 C           0.7887   44.0146   13.9338 C.ar    1  UNL1        0.0052
     32 C           0.0249   44.3261   15.0618 C.ar    1  UNL1        0.0104
     33 C          -0.7392   43.3339   15.6863 C.ar    1  UNL1        0.0685
     34 C          -0.7391   42.0300   15.1820 C.ar    1  UNL1        0.0104
     35 C           0.0248   41.7188   14.0532 C.ar    1  UNL1        0.0052
     36 C          -1.5139   43.6554   16.8505 C.1     1  UNL1        0.1004
     37 N          -2.1420   43.9103   17.7893 N.1     1  UNL1       -0.1908
@<TRIPOS>BOND
     1    18    19    1
     2    12    19    1
     3    13    14   ar
     4    11    13    1
     5    11    10    1
     6     4    10    1
     7     4     5    1
     8     4     1    1
     9     5     8    1
    10     6     8    1
    11     6     7    1
    12     7    10   am
    13     1     2    1
    14     1    20    1
    15    21    22   ar
    16    23    28    1
    17    23    24   ar
    18    26    30    1
    19    31    32   ar
    20    33    34   ar
    21    33    36    1
    22    35    30   ar
    23    25    20   ar
    24    15    16   ar
    25    17    12   ar
    26    28    26   am
    27    12    13   ar
    28     7     9    2
    29    20    21   ar
    30    22    23   ar
    31    26    27    2
    32    30    31   ar
    33    32    33   ar
    34    34    35   ar
    35    24    25   ar
    36    14    15   ar
    37    16    17   ar
    38    36    37    3
    39     2     3    1
    40    28    29    1
@<TRIPOS>MOLECULE
MolPort-019-935-278 67896675 CSSS00159302457 MCULE-6991765842 PubChem-56774740 ZINC000067896675 ZINC67896675
 37 40 0 0 0
SMALL
GASTEIGER

@<TRIPOS>ATOM
      1 C          14.5443   35.6278    9.3788 C.3     1  UNL1        0.1532
      2 O          14.0884   34.3953    8.9057 O.3     1  UNL1       -0.3783
      3 H          13.7915   34.4913    7.9873 H       1  UNL1        0.2109
      4 C          15.7609   36.1221    8.5809 C.3     1  UNL1        0.1362
      5 C          16.5745   37.0875    9.4692 C.3     1  UNL1        0.1653
      6 C          18.5069   35.9271    9.4613 C.3     1  UNL1        0.2272
      7 C          17.8994   34.8050    8.6808 C.2     1  UNL1        0.2562
      8 O          17.9191   37.1420    9.0627 O.3     1  UNL1       -0.3426
      9 O          18.5365   33.7330    8.4995 O.2     1  UNL1       -0.2721
     10 N          16.5890   34.9923    8.1247 N.am    1  UNL1       -0.2697
     11 C          16.2130   34.2795    6.9052 C.3     1  UNL1        0.1233
     12 C          15.9628   35.1390    4.5029 C.ar    1  UNL1        0.1363
     13 C          16.7203   35.0069    5.6958 C.ar    1  UNL1        0.0317
     14 C          17.9530   35.6640    5.8043 C.ar    1  UNL1        0.0004
     15 C          18.4346   36.4541    4.7590 C.ar    1  UNL1       -0.0001
     16 C          17.6798   36.6058    3.5968 C.ar    1  UNL1        0.0031
     17 C          16.4519   35.9535    3.4734 C.ar    1  UNL1        0.0366
     18 C          14.6068   33.1405    3.8860 C.3     1  UNL1        0.2525
     19 O          14.7360   34.4983    4.2818 O.3     1  UNL1       -0.4717
     20 C          13.4249   36.6222    9.3449 C.ar    1  UNL1        0.0060
     21 C          13.6038   37.8324    8.6685 C.ar    1  UNL1       -0.0006
     22 C          12.5679   38.7694    8.6218 C.ar    1  UNL1        0.0144
     23 C          11.3422   38.5067    9.2532 C.ar    1  UNL1        0.0505
     24 C          11.1661   37.2933    9.9270 C.ar    1  UNL1        0.0144
     25 C          12.2010   36.3549    9.9759 C.ar    1  UNL1       -0.0006
     26 C          10.0159   40.4481    8.2231 C.2     1  UNL1        0.2495
     27 O          10.8286   40.6168    7.2726 O.2     1  UNL1       -0.2698
     28 N          10.2554   39.4421    9.2202 N.am    1  UNL1       -0.2804
     29 H           9.6058   39.3892    9.9580 H       1  UNL1        0.1552
     30 C           8.8153   41.2985    8.3168 C.ar    1  UNL1        0.0537
     31 C           7.5414   40.7537    8.0937 C.ar    1  UNL1        0.0052
     32 C           6.4032   41.5589    8.1868 C.ar    1  UNL1        0.0104
     33 C           6.5291   42.9159    8.5050 C.ar    1  UNL1        0.0685
     34 C           7.7940   43.4670    8.7301 C.ar    1  UNL1        0.0104
     35 C           8.9325   42.6610    8.6372 C.ar    1  UNL1        0.0052
     36 C           5.3585   43.7417    8.5895 C.1     1  UNL1        0.1004
     37 N           4.4110   44.4039    8.6556 N.1     1  UNL1       -0.1908
@<TRIPOS>BOND
     1    18    19    1
     2    12    19    1
     3    13    14   ar
     4    11    13    1
     5    11    10    1
     6     4    10    1
     7     4     5    1
     8     4     1    1
     9     5     8    1
    10     6     8    1
    11     6     7    1
    12     7    10   am
    13     1     2    1
    14     1    20    1
    15    21    22   ar
    16    23    28    1
    17    23    24   ar
    18    26    30    1
    19    31    32   ar
    20    33    34   ar
    21    33    36    1
    22    35    30   ar
    23    25    20   ar
    24    15    16   ar
    25    17    12   ar
    26    28    26   am
    27    12    13   ar
    28     7     9    2
    29    20    21   ar
    30    22    23   ar
    31    26    27    2
    32    30    31   ar
    33    32    33   ar
    34    34    35   ar
    35    24    25   ar
    36    14    15   ar
    37    16    17   ar
    38    36    37    3
    39     2     3    1
    40    28    29    1
@<TRIPOS>MOLECULE
MolPort-019-935-278 67896675 CSSS00159302457 MCULE-6991765842 PubChem-56774740 ZINC000067896675 ZINC67896675
 37 40 0 0 0
SMALL
GASTEIGER

@<TRIPOS>ATOM
      1 C          15.5423   39.1213    9.2100 C.3     1  UNL1        0.1532
      2 O          16.2318   40.3183    9.4158 O.3     1  UNL1       -0.3783
      3 H          16.0031   40.6775   10.2873 H       1  UNL1        0.2109
      4 C          15.9488   38.0536   10.2375 C.3     1  UNL1        0.1362
      5 C          14.9185   38.0574   11.3871 C.3     1  UNL1        0.1653
      6 C          14.2375   35.9196   11.1710 C.3     1  UNL1        0.2272
      7 C          15.0900   35.7076    9.9603 C.2     1  UNL1        0.2562
      8 O          14.8838   36.8148   12.0435 O.3     1  UNL1       -0.3426
      9 O          14.9870   34.6506    9.2820 O.2     1  UNL1       -0.2721
     10 N          16.0419   36.7238    9.6101 N.am    1  UNL1       -0.2697
     11 C          17.2653   36.3543    8.9009 C.3     1  UNL1        0.1233
     12 C          17.5500   34.2928    7.4037 C.ar    1  UNL1        0.1363
     13 C          16.9397   35.5435    7.6820 C.ar    1  UNL1        0.0317
     14 C          15.9133   36.0086    6.8494 C.ar    1  UNL1        0.0004
     15 C          15.4790   35.2502    5.7608 C.ar    1  UNL1       -0.0001
     16 C          16.0596   34.0096    5.5013 C.ar    1  UNL1        0.0031
     17 C          17.0860   33.5359    6.3200 C.ar    1  UNL1        0.0366
     18 C          18.7374   33.9017    9.5602 C.3     1  UNL1        0.2525
     19 O          18.6041   33.7540    8.1540 O.3     1  UNL1       -0.4717
     20 C          14.0676   39.3810    9.2427 C.ar    1  UNL1        0.0060
     21 C          13.2251   38.6543    8.3964 C.ar    1  UNL1       -0.0006
     22 C          11.8459   38.8795    8.4178 C.ar    1  UNL1        0.0144
     23 C          11.2948   39.8359    9.2847 C.ar    1  UNL1        0.0505
     24 C          12.1410   40.5594   10.1319 C.ar    1  UNL1        0.0144
     25 C          13.5208   40.3367   10.1118 C.ar    1  UNL1       -0.0006
     26 C           9.2421   41.3710    9.4231 C.2     1  UNL1        0.2495
     27 O           9.9266   42.4274    9.5110 O.2     1  UNL1       -0.2698
     28 N           9.8840   40.0887    9.3380 N.am    1  UNL1       -0.2804
     29 H           9.2938   39.3010    9.3138 H       1  UNL1        0.1552
     30 C           7.7701   41.4530    9.4183 C.ar    1  UNL1        0.0537
     31 C           7.0509   41.2215    8.2358 C.ar    1  UNL1        0.0052
     32 C           5.6554   41.2950    8.2325 C.ar    1  UNL1        0.0104
     33 C           4.9672   41.5997    9.4122 C.ar    1  UNL1        0.0685
     34 C           5.6753   41.8307   10.5953 C.ar    1  UNL1        0.0104
     35 C           7.0713   41.7567   10.5983 C.ar    1  UNL1        0.0052
     36 C           3.5347   41.6844    9.4022 C.1     1  UNL1        0.1004
     37 N           2.3790   41.7560    9.3986 N.1     1  UNL1       -0.1908
@<TRIPOS>BOND
     1    18    19    1
     2    12    19    1
     3    13    14   ar
     4    11    13    1
     5    11    10    1
     6     4    10    1
     7     4     5    1
     8     4     1    1
     9     5     8    1
    10     6     8    1
    11     6     7    1
    12     7    10   am
    13     1     2    1
    14     1    20    1
    15    21    22   ar
    16    23    28    1
    17    23    24   ar
    18    26    30    1
    19    31    32   ar
    20    33    34   ar
    21    33    36    1
    22    35    30   ar
    23    25    20   ar
    24    15    16   ar
    25    17    12   ar
    26    28    26   am
    27    12    13   ar
    28     7     9    2
    29    20    21   ar
    30    22    23   ar
    31    26    27    2
    32    30    31   ar
    33    32    33   ar
    34    34    35   ar
    35    24    25   ar
    36    14    15   ar
    37    16    17   ar
    38    36    37    3
    39     2     3    1
    40    28    29    1
@<TRIPOS>MOLECULE
MolPort-019-935-278 67896675 CSSS00159302457 MCULE-6991765842 PubChem-56774740 ZINC000067896675 ZINC67896675
 37 40 0 0 0
SMALL
GASTEIGER

@<TRIPOS>ATOM
      1 C           8.6259   41.1053    7.9369 C.3     1  UNL1        0.1532
      2 O           7.5388   40.3215    7.5441 O.3     1  UNL1       -0.3783
      3 H           7.4133   39.6004    8.1807 H       1  UNL1        0.2109
      4 C           8.3773   41.7705    9.2995 C.3     1  UNL1        0.1362
      5 C           9.7115   41.8220   10.0743 C.3     1  UNL1        0.1653
      6 C           9.8215   44.0609   10.3105 C.3     1  UNL1        0.2272
      7 C           8.5869   44.2679    9.4917 C.2     1  UNL1        0.2562
      8 O           9.7070   42.8554   11.0273 O.3     1  UNL1       -0.3426
      9 O           8.2342   45.4276    9.1473 O.2     1  UNL1       -0.2721
     10 N           7.8051   43.1180    9.1340 N.am    1  UNL1       -0.2697
     11 C           6.3660   43.2602    8.9218 C.3     1  UNL1        0.1233
     12 C           5.8480   41.8489   10.9985 C.ar    1  UNL1        0.1363
     13 C           5.6212   42.1713    9.6351 C.ar    1  UNL1        0.0317
     14 C           4.5909   41.5266    8.9380 C.ar    1  UNL1        0.0004
     15 C           3.7812   40.5835    9.5732 C.ar    1  UNL1       -0.0001
     16 C           3.9860   40.2847   10.9194 C.ar    1  UNL1        0.0031
     17 C           5.0114   40.9162   11.6251 C.ar    1  UNL1        0.0366
     18 C           7.6788   41.6757   12.6812 C.3     1  UNL1        0.2525
     19 O           6.8708   42.4115   11.7743 O.3     1  UNL1       -0.4717
     20 C           9.8672   40.2674    7.9536 C.ar    1  UNL1        0.0060
     21 C          11.0562   40.7941    7.4410 C.ar    1  UNL1       -0.0006
     22 C          12.2254   40.0284    7.4540 C.ar    1  UNL1        0.0144
     23 C          12.2171   38.7264    7.9780 C.ar    1  UNL1        0.0505
     24 C          11.0257   38.2037    8.4924 C.ar    1  UNL1        0.0144
     25 C           9.8549   38.9672    8.4798 C.ar    1  UNL1       -0.0006
     26 C          14.3047   37.7610    9.1178 C.2     1  UNL1        0.2495
     27 O          14.1330   38.4125   10.1847 O.2     1  UNL1       -0.2698
     28 N          13.3991   37.9147    8.0133 N.am    1  UNL1       -0.2804
     29 H          13.6121   37.4103    7.1952 H       1  UNL1        0.1552
     30 C          15.4513   36.8419    9.0000 C.ar    1  UNL1        0.0537
     31 C          16.6801   37.1609    9.5981 C.ar    1  UNL1        0.0052
     32 C          17.7656   36.2875    9.4901 C.ar    1  UNL1        0.0104
     33 C          17.6311   35.0869    8.7839 C.ar    1  UNL1        0.0685
     34 C          16.4105   34.7602    8.1858 C.ar    1  UNL1        0.0104
     35 C          15.3246   35.6340    8.2944 C.ar    1  UNL1        0.0052
     36 C          18.7512   34.1976    8.6665 C.1     1  UNL1        0.1004
     37 N          19.6521   33.4760    8.5741 N.1     1  UNL1       -0.1908
@<TRIPOS>BOND
     1    18    19    1
     2    12    19    1
     3    13    14   ar
     4    11    13    1
     5    11    10    1
     6     4    10    1
     7     4     5    1
     8     4     1    1
     9     5     8    1
    10     6     8    1
    11     6     7    1
    12     7    10   am
    13     1     2    1
    14     1    20    1
    15    21    22   ar
    16    23    28    1
    17    23    24   ar
    18    26    30    1
    19    31    32   ar
    20    33    34   ar
    21    33    36    1
    22    35    30   ar
    23    25    20   ar
    24    15    16   ar
    25    17    12   ar
    26    28    26   am
    27    12    13   ar
    28     7     9    2
    29    20    21   ar
    30    22    23   ar
    31    26    27    2
    32    30    31   ar
    33    32    33   ar
    34    34    35   ar
    35    24    25   ar
    36    14    15   ar
    37    16    17   ar
    38    36    37    3
    39     2     3    1
    40    28    29    1
@<TRIPOS>MOLECULE
MolPort-019-935-278 67896675 CSSS00159302457 MCULE-6991765842 PubChem-56774740 ZINC000067896675 ZINC67896675
 37 40 0 0 0
SMALL
GASTEIGER

@<TRIPOS>ATOM
      1 C          14.6188   37.8404   10.8913 C.3     1  UNL1        0.1532
      2 O          14.3767   36.4660   10.9459 O.3     1  UNL1       -0.3783
      3 H          14.0291   36.1647   10.0919 H       1  UNL1        0.2109
      4 C          15.6899   38.1823    9.8441 C.3     1  UNL1        0.1362
      5 C          16.8987   38.8178   10.5639 C.3     1  UNL1        0.1653
      6 C          18.4392   37.2955    9.9394 C.3     1  UNL1        0.2272
      7 C          17.4129   36.4498    9.2544 C.2     1  UNL1        0.2562
      8 O          18.0796   38.6507    9.8198 O.3     1  UNL1       -0.3426
      9 O          17.7138   35.3071    8.8168 O.2     1  UNL1       -0.2721
     10 N          16.0909   36.9840    9.0866 N.am    1  UNL1       -0.2697
     11 C          15.2747   36.5503    7.9543 C.3     1  UNL1        0.1233
     12 C          16.1467   34.5053    6.6775 C.ar    1  UNL1        0.1363
     13 C          15.4075   35.0706    7.7491 C.ar    1  UNL1        0.0317
     14 C          14.8577   34.2290    8.7250 C.ar    1  UNL1        0.0004
     15 C          15.0404   32.8466    8.6598 C.ar    1  UNL1       -0.0001
     16 C          15.7881   32.2918    7.6221 C.ar    1  UNL1        0.0031
     17 C          16.3380   33.1180    6.6407 C.ar    1  UNL1        0.0366
     18 C          17.4174   34.6914    4.5411 C.3     1  UNL1        0.2525
     19 O          16.7087   35.2551    5.6352 O.3     1  UNL1       -0.4717
     20 C          13.3359   38.5643   10.6206 C.ar    1  UNL1        0.0060
     21 C          12.3857   37.9822    9.7766 C.ar    1  UNL1       -0.0006
     22 C          11.1806   38.6409    9.5176 C.ar    1  UNL1        0.0144
     23 C          10.9138   39.8904   10.0986 C.ar    1  UNL1        0.0505
     24 C          11.8662   40.4686   10.9447 C.ar    1  UNL1        0.0144
     25 C          13.0727   39.8122   11.2046 C.ar    1  UNL1       -0.0006
     26 C           9.5250   42.0072    9.6747 C.2     1  UNL1        0.2495
     27 O          10.5160   42.7832    9.7634 O.2     1  UNL1       -0.2698
     28 N           9.6856   40.5918    9.8603 N.am    1  UNL1       -0.2804
     29 H           8.8672   40.0462    9.8197 H       1  UNL1        0.1552
     30 C           8.1884   42.5595    9.3884 C.ar    1  UNL1        0.0537
     31 C           8.0520   43.8664    8.8957 C.ar    1  UNL1        0.0052
     32 C           6.7853   44.3883    8.6202 C.ar    1  UNL1        0.0104
     33 C           5.6441   43.6071    8.8343 C.ar    1  UNL1        0.0685
     34 C           5.7705   42.3037    9.3238 C.ar    1  UNL1        0.0104
     35 C           7.0379   41.7818    9.5989 C.ar    1  UNL1        0.0052
     36 C           4.3445   44.1504    8.5600 C.1     1  UNL1        0.1004
     37 N           3.2982   44.5933    8.3369 N.1     1  UNL1       -0.1908
@<TRIPOS>BOND
     1    18    19    1
     2    12    19    1
     3    13    14   ar
     4    11    13    1
     5    11    10    1
     6     4    10    1
     7     4     5    1
     8     4     1    1
     9     5     8    1
    10     6     8    1
    11     6     7    1
    12     7    10   am
    13     1     2    1
    14     1    20    1
    15    21    22   ar
    16    23    28    1
    17    23    24   ar
    18    26    30    1
    19    31    32   ar
    20    33    34   ar
    21    33    36    1
    22    35    30   ar
    23    25    20   ar
    24    15    16   ar
    25    17    12   ar
    26    28    26   am
    27    12    13   ar
    28     7     9    2
    29    20    21   ar
    30    22    23   ar
    31    26    27    2
    32    30    31   ar
    33    32    33   ar
    34    34    35   ar
    35    24    25   ar
    36    14    15   ar
    37    16    17   ar
    38    36    37    3
    39     2     3    1
    40    28    29    1
