@<TRIPOS>MOLECULE
MolPort-002-776-346 MCULE-9426573331 PubChem-19614191 ZINC000020607634
 34 39 0 0 0
SMALL
GASTEIGER

@<TRIPOS>ATOM
      1 C          13.7913   40.1479    8.0222 C.ar    1  UNL1        0.1565
      2 C          14.7179   42.0347    7.5476 C.ar    1  UNL1        0.1584
      3 C          16.7302   42.9669    8.3221 C.ar    1  UNL1        0.1539
      4 C          16.9552   41.8134    9.1137 C.ar    1  UNL1        0.0190
      5 C          16.0410   40.7394    9.0877 C.ar    1  UNL1       -0.0154
      6 C          14.9089   40.9053    8.2856 C.ar    1  UNL1        0.0647
      7 N          12.9888   40.8176    7.1603 N.ar    1  UNL1       -0.1561
      8 N          13.5595   41.9835    6.8674 N.ar    1  UNL1       -0.2584
      9 N          15.6001   43.0635    7.5546 N.ar    1  UNL1       -0.2231
     10 H          13.2015   42.6766    6.2669 H       1  UNL1        0.1906
     11 C          14.2069   37.6509    8.2570 C.2     1  UNL1        0.2508
     12 N          13.5065   38.8593    8.5748 N.am    1  UNL1       -0.2644
     13 O          15.1467   37.6628    7.4166 O.2     1  UNL1       -0.2698
     14 H          12.7702   38.7983    9.2255 H       1  UNL1        0.1566
     15 C          13.8199   36.3922    8.9249 C.ar    1  UNL1        0.0594
     16 C          14.5328   35.2021    8.6720 C.ar    1  UNL1        0.0194
     17 C          14.1580   33.9900    9.3018 C.ar    1  UNL1        0.0604
     18 C          12.4342   35.1195   10.4205 C.ar    1  UNL1        0.1607
     19 C          11.8447   37.2256   10.3194 C.ar    1  UNL1        0.1233
     20 C          12.7531   36.3011    9.8257 C.ar    1  UNL1        0.0607
     21 C          10.7425   34.2860   12.0571 C.3     1  UNL1        0.1554
     22 N          13.1121   33.9694   10.1851 N.ar    1  UNL1       -0.2312
     23 N          11.3908   35.2939   11.2368 N.ar    1  UNL1       -0.2320
     24 N          11.0244   36.5683   11.1827 N.ar    1  UNL1       -0.1663
     25 C          14.9505   32.7458    9.0512 C.3     1  UNL1        0.0404
     26 C          15.2586   32.6112    7.5697 C.3     1  UNL1        0.0063
     27 C          14.1564   31.7818    8.1868 C.3     1  UNL1        0.0063
     28 C          17.6975   44.1097    8.3799 C.3     1  UNL1        0.4349
     29 F          18.9971   43.6472    8.2712 F       1  UNL1       -0.1644
     30 F          17.4403   44.9815    7.3383 F       1  UNL1       -0.1644
     31 F          17.5637   44.7833    9.5809 F       1  UNL1       -0.1644
     32 C          16.2369   39.5252    9.9507 C.3     1  UNL1        0.0226
     33 C          17.5742   38.8762    9.6340 C.3     1  UNL1        0.0047
     34 C          17.4209   39.7020   10.8890 C.3     1  UNL1        0.0047
@<TRIPOS>BOND
     1     1    12    1
     2    11    15    1
     3    16    17   ar
     4    25    17    1
     5    25    26    1
     6    26    27    1
     7    27    25    1
     8    18    22   ar
     9    18    23   ar
    10    19    20   ar
    11    20    15   ar
    12    21    23    1
    13     3     9   ar
    14    28     3    1
    15    28    29    1
    16    28    30    1
    17    28    31    1
    18     4     5   ar
    19    32     5    1
    20    32    33    1
    21    33    34    1
    22    34    32    1
    23     6     1   ar
    24     6     2   ar
    25    12    11   am
    26    23    24   ar
    27     8     7   ar
    28     8     2   ar
    29     1     7   ar
    30    11    13    2
    31    15    16   ar
    32    17    22   ar
    33    19    24   ar
    34    20    18   ar
    35     2     9   ar
    36     3     4   ar
    37     5     6   ar
    38    12    14    1
    39     8    10    1
@<TRIPOS>MOLECULE
MolPort-002-776-346 MCULE-9426573331 PubChem-19614191 ZINC000020607634
 34 39 0 0 0
SMALL
GASTEIGER

@<TRIPOS>ATOM
      1 C           9.5819   41.9161    7.3694 C.ar    1  UNL1        0.1565
      2 C           7.4366   41.8031    7.5392 C.ar    1  UNL1        0.1584
      3 C           6.0729   41.7539    9.4512 C.ar    1  UNL1        0.1539
      4 C           7.2259   41.8355   10.2708 C.ar    1  UNL1        0.0190
      5 C           8.5088   41.9312    9.6920 C.ar    1  UNL1       -0.0154
      6 C           8.5658   41.8960    8.2962 C.ar    1  UNL1        0.0647
      7 N           9.0542   41.8411    6.1239 N.ar    1  UNL1       -0.1561
      8 N           7.7294   41.7701    6.2275 N.ar    1  UNL1       -0.2584
      9 N           6.1997   41.7275    8.0879 N.ar    1  UNL1       -0.2231
     10 H           7.0862   41.7056    5.4850 H       1  UNL1        0.1906
     11 C          12.0339   41.5989    6.7780 C.2     1  UNL1        0.2508
     12 N          10.9798   41.9928    7.6642 N.am    1  UNL1       -0.2644
     13 O          11.7650   41.1235    5.6415 O.2     1  UNL1       -0.2698
     14 H          11.2378   42.3445    8.5468 H       1  UNL1        0.1566
     15 C          13.4379   41.7574    7.2066 C.ar    1  UNL1        0.0594
     16 C          13.9588   40.9651    8.2505 C.ar    1  UNL1        0.0194
     17 C          15.3018   41.1218    8.6725 C.ar    1  UNL1        0.0604
     18 C          15.6046   42.7854    7.0480 C.ar    1  UNL1        0.1607
     19 C          14.1819   43.6002    5.5969 C.ar    1  UNL1        0.1233
     20 C          14.3169   42.6759    6.6222 C.ar    1  UNL1        0.0607
     21 C          17.6200   44.1416    6.4701 C.3     1  UNL1        0.1554
     22 N          16.1163   42.0295    8.0502 N.ar    1  UNL1       -0.2312
     23 N          16.2371   43.7203    6.3327 N.ar    1  UNL1       -0.2320
     24 N          15.3829   44.2219    5.4495 N.ar    1  UNL1       -0.1663
     25 C          15.8480   40.2451    9.7552 C.3     1  UNL1        0.0404
     26 C          15.4741   38.7961    9.4937 C.3     1  UNL1        0.0063
     27 C          14.7134   39.5942   10.5271 C.3     1  UNL1        0.0063
     28 C           4.7193   41.6273   10.0812 C.3     1  UNL1        0.4349
     29 F           4.0320   40.5572    9.5360 F       1  UNL1       -0.1644
     30 F           4.8634   41.4251   11.4412 F       1  UNL1       -0.1644
     31 F           3.9876   42.7818    9.8676 F       1  UNL1       -0.1644
     32 C           9.7478   41.9755   10.5406 C.3     1  UNL1        0.0226
     33 C           9.4859   41.2945   11.8738 C.3     1  UNL1        0.0047
     34 C          10.2811   40.5767   10.8095 C.3     1  UNL1        0.0047
@<TRIPOS>BOND
     1     1    12    1
     2    11    15    1
     3    16    17   ar
     4    25    17    1
     5    25    26    1
     6    26    27    1
     7    27    25    1
     8    18    22   ar
     9    18    23   ar
    10    19    20   ar
    11    20    15   ar
    12    21    23    1
    13     3     9   ar
    14    28     3    1
    15    28    29    1
    16    28    30    1
    17    28    31    1
    18     4     5   ar
    19    32     5    1
    20    32    33    1
    21    33    34    1
    22    34    32    1
    23     6     1   ar
    24     6     2   ar
    25    12    11   am
    26    23    24   ar
    27     8     7   ar
    28     8     2   ar
    29     1     7   ar
    30    11    13    2
    31    15    16   ar
    32    17    22   ar
    33    19    24   ar
    34    20    18   ar
    35     2     9   ar
    36     3     4   ar
    37     5     6   ar
    38    12    14    1
    39     8    10    1
@<TRIPOS>MOLECULE
MolPort-002-776-346 MCULE-9426573331 PubChem-19614191 ZINC000020607634
 34 39 0 0 0
SMALL
GASTEIGER

@<TRIPOS>ATOM
      1 C           9.4997   41.7300    6.8851 C.ar    1  UNL1        0.1565
      2 C           7.3577   41.5037    6.9525 C.ar    1  UNL1        0.1584
      3 C           5.8955   41.5033    8.7910 C.ar    1  UNL1        0.1539
      4 C           6.9955   41.7067    9.6608 C.ar    1  UNL1        0.0190
      5 C           8.3012   41.8381    9.1431 C.ar    1  UNL1       -0.0154
      6 C           8.4367   41.7128    7.7579 C.ar    1  UNL1        0.0647
      7 N           9.0462   41.5411    5.6226 N.ar    1  UNL1       -0.1561
      8 N           7.7236   41.4000    5.6631 N.ar    1  UNL1       -0.2584
      9 N           6.0985   41.3931    7.4411 N.ar    1  UNL1       -0.2231
     10 H           7.1267   41.2486    4.8949 H       1  UNL1        0.1906
     11 C          11.9929   41.4215    6.4959 C.2     1  UNL1        0.2508
     12 N          10.8729   41.9077    7.2450 N.am    1  UNL1       -0.2644
     13 O          11.8116   40.7630    5.4361 O.2     1  UNL1       -0.2698
     14 H          11.0634   42.4038    8.0737 H       1  UNL1        0.1566
     15 C          13.3613   41.7012    6.9750 C.ar    1  UNL1        0.0594
     16 C          13.8971   40.9815    8.0629 C.ar    1  UNL1        0.0194
     17 C          15.2052   41.2544    8.5330 C.ar    1  UNL1        0.0604
     18 C          15.4472   42.8905    6.8708 C.ar    1  UNL1        0.1607
     19 C          14.0284   43.5507    5.3395 C.ar    1  UNL1        0.1233
     20 C          14.1908   42.6688    6.3977 C.ar    1  UNL1        0.0607
     21 C          17.3748   44.3834    6.3316 C.3     1  UNL1        0.1554
     22 N          15.9728   42.2052    7.9156 N.ar    1  UNL1       -0.2312
     23 N          16.0354   43.8515    6.1524 N.ar    1  UNL1       -0.2320
     24 N          15.1831   44.2599    5.2208 N.ar    1  UNL1       -0.1663
     25 C          15.7711   40.4537    9.6633 C.3     1  UNL1        0.0404
     26 C          15.7343   38.9730    9.3256 C.3     1  UNL1        0.0063
     27 C          14.7004   39.5570   10.2603 C.3     1  UNL1        0.0063
     28 C           4.5183   41.3405    9.3582 C.3     1  UNL1        0.4349
     29 F           4.1159   42.5046    9.9888 F       1  UNL1       -0.1644
     30 F           3.6327   41.0515    8.3366 F       1  UNL1       -0.1644
     31 F           4.5041   40.3078   10.2787 F       1  UNL1       -0.1644
     32 C           9.4873   42.0113   10.0488 C.3     1  UNL1        0.0226
     33 C          10.6769   42.5194    9.2511 C.3     1  UNL1        0.0047
     34 C           9.9059   43.4710   10.1344 C.3     1  UNL1        0.0047
@<TRIPOS>BOND
     1     1    12    1
     2    11    15    1
     3    16    17   ar
     4    25    17    1
     5    25    26    1
     6    26    27    1
     7    27    25    1
     8    18    22   ar
     9    18    23   ar
    10    19    20   ar
    11    20    15   ar
    12    21    23    1
    13     3     9   ar
    14    28     3    1
    15    28    29    1
    16    28    30    1
    17    28    31    1
    18     4     5   ar
    19    32     5    1
    20    32    33    1
    21    33    34    1
    22    34    32    1
    23     6     1   ar
    24     6     2   ar
    25    12    11   am
    26    23    24   ar
    27     8     7   ar
    28     8     2   ar
    29     1     7   ar
    30    11    13    2
    31    15    16   ar
    32    17    22   ar
    33    19    24   ar
    34    20    18   ar
    35     2     9   ar
    36     3     4   ar
    37     5     6   ar
    38    12    14    1
    39     8    10    1
@<TRIPOS>MOLECULE
MolPort-002-776-346 MCULE-9426573331 PubChem-19614191 ZINC000020607634
 34 39 0 0 0
SMALL
GASTEIGER

@<TRIPOS>ATOM
      1 C           8.5234   41.5472    7.2433 C.ar    1  UNL1        0.1565
      2 C           6.3780   41.3794    7.3555 C.ar    1  UNL1        0.1584
      3 C           4.9687   41.2478    9.2302 C.ar    1  UNL1        0.1539
      4 C           6.0987   41.3348   10.0807 C.ar    1  UNL1        0.0190
      5 C           7.3929   41.4758    9.5375 C.ar    1  UNL1       -0.0154
      6 C           7.4854   41.4788    8.1432 C.ar    1  UNL1        0.0647
      7 N           8.0289   41.4927    5.9833 N.ar    1  UNL1       -0.1561
      8 N           6.7040   41.3878    6.0513 N.ar    1  UNL1       -0.2584
      9 N           5.1300   41.2604    7.8703 N.ar    1  UNL1       -0.2231
     10 H           6.0812   41.3279    5.2912 H       1  UNL1        0.1906
     11 C          10.9656   40.9007    6.9588 C.2     1  UNL1        0.2508
     12 N           9.9113   41.6490    7.5756 N.am    1  UNL1       -0.2644
     13 O          10.7046   40.0585    6.0575 O.2     1  UNL1       -0.2698
     14 H          10.1618   42.2841    8.2849 H       1  UNL1        0.1566
     15 C          12.3606   41.1270    7.3862 C.ar    1  UNL1        0.0594
     16 C          12.8983   40.4099    8.4749 C.ar    1  UNL1        0.0194
     17 C          14.2325   40.6320    8.8955 C.ar    1  UNL1        0.0604
     18 C          14.4950   42.2134    7.1841 C.ar    1  UNL1        0.1607
     19 C          13.0583   42.9020    5.6823 C.ar    1  UNL1        0.1233
     20 C          13.2146   42.0398    6.7575 C.ar    1  UNL1        0.0607
     21 C          16.4710   43.5995    6.5445 C.3     1  UNL1        0.1554
     22 N          15.0226   41.5299    8.2292 N.ar    1  UNL1       -0.2312
     23 N          15.1031   43.1274    6.4223 N.ar    1  UNL1       -0.2320
     24 N          14.2402   43.5526    5.5081 N.ar    1  UNL1       -0.1663
     25 C          14.7979   39.8336   10.0277 C.3     1  UNL1        0.0404
     26 C          15.2847   38.4851    9.5252 C.3     1  UNL1        0.0063
     27 C          13.9659   38.5836   10.2565 C.3     1  UNL1        0.0063
     28 C           3.6033   41.0728    9.8219 C.3     1  UNL1        0.4349
     29 F           2.6493   41.0066    8.8218 F       1  UNL1       -0.1644
     30 F           3.5684   39.9024   10.5569 F       1  UNL1       -0.1644
     31 F           3.3060   42.1398   10.6508 F       1  UNL1       -0.1644
     32 C           8.6090   41.5268   10.4182 C.3     1  UNL1        0.0226
     33 C           9.1343   42.9510   10.4922 C.3     1  UNL1        0.0047
     34 C           8.3584   42.3776   11.6539 C.3     1  UNL1        0.0047
@<TRIPOS>BOND
     1     1    12    1
     2    11    15    1
     3    16    17   ar
     4    25    17    1
     5    25    26    1
     6    26    27    1
     7    27    25    1
     8    18    22   ar
     9    18    23   ar
    10    19    20   ar
    11    20    15   ar
    12    21    23    1
    13     3     9   ar
    14    28     3    1
    15    28    29    1
    16    28    30    1
    17    28    31    1
    18     4     5   ar
    19    32     5    1
    20    32    33    1
    21    33    34    1
    22    34    32    1
    23     6     1   ar
    24     6     2   ar
    25    12    11   am
    26    23    24   ar
    27     8     7   ar
    28     8     2   ar
    29     1     7   ar
    30    11    13    2
    31    15    16   ar
    32    17    22   ar
    33    19    24   ar
    34    20    18   ar
    35     2     9   ar
    36     3     4   ar
    37     5     6   ar
    38    12    14    1
    39     8    10    1
@<TRIPOS>MOLECULE
MolPort-002-776-346 MCULE-9426573331 PubChem-19614191 ZINC000020607634
 34 39 0 0 0
SMALL
GASTEIGER

@<TRIPOS>ATOM
      1 C           4.9215   41.0436    8.6145 C.ar    1  UNL1        0.1565
      2 C           3.0849   41.5779    9.6069 C.ar    1  UNL1        0.1584
      3 C           2.6661   42.0172   11.8762 C.ar    1  UNL1        0.1539
      4 C           4.0338   41.7894   12.1685 C.ar    1  UNL1        0.0190
      5 C           4.9427   41.4761   11.1362 C.ar    1  UNL1       -0.0154
      6 C           4.4087   41.3652    9.8496 C.ar    1  UNL1        0.0647
      7 N           3.9276   41.0742    7.6945 N.ar    1  UNL1       -0.1561
      8 N           2.7925   41.4029    8.3064 N.ar    1  UNL1       -0.2584
      9 N           2.2089   41.8955   10.5910 N.ar    1  UNL1       -0.2231
     10 H           1.9072   41.4996    7.8867 H       1  UNL1        0.1906
     11 C           6.7784   40.2194    7.0862 C.2     1  UNL1        0.2508
     12 N           6.2862   40.7160    8.3364 N.am    1  UNL1       -0.2644
     13 O           5.9869   40.0198    6.1252 O.2     1  UNL1       -0.2698
     14 H           6.9392   40.8420    9.0623 H       1  UNL1        0.1566
     15 C           8.2213   39.9464    6.9327 C.ar    1  UNL1        0.0594
     16 C           9.1105   40.1884    8.0002 C.ar    1  UNL1        0.0194
     17 C          10.4971   39.9386    7.8536 C.ar    1  UNL1        0.0604
     18 C          10.1196   39.2048    5.6587 C.ar    1  UNL1        0.1607
     19 C           8.2506   39.0860    4.5246 C.ar    1  UNL1        0.1233
     20 C           8.7835   39.4444    5.7539 C.ar    1  UNL1        0.0607
     21 C          11.7119   38.3423    3.9395 C.3     1  UNL1        0.1554
     22 N          10.9838   39.4335    6.6779 N.ar    1  UNL1       -0.2312
     23 N          10.4054   38.7252    4.4447 N.ar    1  UNL1       -0.2320
     24 N           9.2785   38.6496    3.7477 N.ar    1  UNL1       -0.1663
     25 C          11.4195   40.1644    9.0099 C.3     1  UNL1        0.0404
     26 C          11.3213   39.0087    9.9911 C.3     1  UNL1        0.0063
     27 C          10.6244   40.3146   10.2953 C.3     1  UNL1        0.0063
     28 C           1.7087   42.3242   12.9870 C.3     1  UNL1        0.4349
     29 F           0.4033   42.2348   12.5368 F       1  UNL1       -0.1644
     30 F           1.8941   41.4193   14.0156 F       1  UNL1       -0.1644
     31 F           1.9290   43.6047   13.4621 F       1  UNL1       -0.1644
     32 C           6.3882   41.1885   11.4280 C.3     1  UNL1        0.0226
     33 C           7.2748   42.1017   10.5975 C.3     1  UNL1        0.0047
     34 C           7.0703   42.3890   12.0659 C.3     1  UNL1        0.0047
@<TRIPOS>BOND
     1     1    12    1
     2    11    15    1
     3    16    17   ar
     4    25    17    1
     5    25    26    1
     6    26    27    1
     7    27    25    1
     8    18    22   ar
     9    18    23   ar
    10    19    20   ar
    11    20    15   ar
    12    21    23    1
    13     3     9   ar
    14    28     3    1
    15    28    29    1
    16    28    30    1
    17    28    31    1
    18     4     5   ar
    19    32     5    1
    20    32    33    1
    21    33    34    1
    22    34    32    1
    23     6     1   ar
    24     6     2   ar
    25    12    11   am
    26    23    24   ar
    27     8     7   ar
    28     8     2   ar
    29     1     7   ar
    30    11    13    2
    31    15    16   ar
    32    17    22   ar
    33    19    24   ar
    34    20    18   ar
    35     2     9   ar
    36     3     4   ar
    37     5     6   ar
    38    12    14    1
    39     8    10    1
@<TRIPOS>MOLECULE
MolPort-002-776-346 MCULE-9426573331 PubChem-19614191 ZINC000020607634
 34 39 0 0 0
SMALL
GASTEIGER

@<TRIPOS>ATOM
      1 C           9.6731   41.9254    7.3927 C.ar    1  UNL1        0.1565
      2 C           7.5257   41.8034    7.5247 C.ar    1  UNL1        0.1584
      3 C           6.1265   41.7854    9.4115 C.ar    1  UNL1        0.1539
      4 C           7.2635   41.8905   10.2506 C.ar    1  UNL1        0.0190
      5 C           8.5565   41.9818    9.6941 C.ar    1  UNL1       -0.0154
      6 C           8.6399   41.9184    8.3006 C.ar    1  UNL1        0.0647
      7 N           9.1694   41.8218    6.1394 N.ar    1  UNL1       -0.1561
      8 N           7.8433   41.7452    6.2197 N.ar    1  UNL1       -0.2584
      9 N           6.2791   41.7319    8.0516 N.ar    1  UNL1       -0.2231
     10 H           7.2145   41.6618    5.4668 H       1  UNL1        0.1906
     11 C          12.1388   41.6539    6.8362 C.2     1  UNL1        0.2508
     12 N          11.0648   42.0164    7.7120 N.am    1  UNL1       -0.2644
     13 O          11.8953   41.1960    5.6870 O.2     1  UNL1       -0.2698
     14 H          11.3033   42.3552    8.6050 H       1  UNL1        0.1566
     15 C          13.5332   41.8242    7.2909 C.ar    1  UNL1        0.0594
     16 C          14.3111   42.9013    6.8179 C.ar    1  UNL1        0.0194
     17 C          15.6527   43.0621    7.2426 C.ar    1  UNL1        0.0604
     18 C          15.4422   41.1528    8.5875 C.ar    1  UNL1        0.1607
     19 C          13.7292   39.8177    8.8643 C.ar    1  UNL1        0.1233
     20 C          14.1548   40.9548    8.1938 C.ar    1  UNL1        0.0607
     21 C          17.0876   40.0486   10.1069 C.3     1  UNL1        0.1554
     22 N          16.1995   42.1842    8.1397 N.ar    1  UNL1       -0.2312
     23 N          15.8002   40.1987    9.4519 N.ar    1  UNL1       -0.2320
     24 N          14.7685   39.3825    9.6266 N.ar    1  UNL1       -0.1663
     25 C          16.4500   44.2329    6.7604 C.3     1  UNL1        0.0404
     26 C          17.4880   43.7781    5.7487 C.3     1  UNL1        0.0063
     27 C          17.9051   44.0823    7.1689 C.3     1  UNL1        0.0063
     28 C           4.7621   41.6639   10.0185 C.3     1  UNL1        0.4349
     29 F           4.3136   40.3572    9.9387 F       1  UNL1       -0.1644
     30 F           4.8158   42.0420   11.3472 F       1  UNL1       -0.1644
     31 F           3.8707   42.4822    9.3480 F       1  UNL1       -0.1644
     32 C           9.7790   42.0508   10.5646 C.3     1  UNL1        0.0226
     33 C           9.5112   41.3534   11.8881 C.3     1  UNL1        0.0047
     34 C          10.3427   40.6638   10.8329 C.3     1  UNL1        0.0047
@<TRIPOS>BOND
     1     1    12    1
     2    11    15    1
     3    16    17   ar
     4    25    17    1
     5    25    26    1
     6    26    27    1
     7    27    25    1
     8    18    22   ar
     9    18    23   ar
    10    19    20   ar
    11    20    15   ar
    12    21    23    1
    13     3     9   ar
    14    28     3    1
    15    28    29    1
    16    28    30    1
    17    28    31    1
    18     4     5   ar
    19    32     5    1
    20    32    33    1
    21    33    34    1
    22    34    32    1
    23     6     1   ar
    24     6     2   ar
    25    12    11   am
    26    23    24   ar
    27     8     7   ar
    28     8     2   ar
    29     1     7   ar
    30    11    13    2
    31    15    16   ar
    32    17    22   ar
    33    19    24   ar
    34    20    18   ar
    35     2     9   ar
    36     3     4   ar
    37     5     6   ar
    38    12    14    1
    39     8    10    1
@<TRIPOS>MOLECULE
MolPort-002-776-346 MCULE-9426573331 PubChem-19614191 ZINC000020607634
 34 39 0 0 0
SMALL
GASTEIGER

@<TRIPOS>ATOM
      1 C          10.7179   42.3138   10.0643 C.ar    1  UNL1        0.1565
      2 C           9.0710   43.5059    9.3501 C.ar    1  UNL1        0.1584
      3 C           7.3639   42.9675    7.8289 C.ar    1  UNL1        0.1539
      4 C           7.9109   41.6687    7.6810 C.ar    1  UNL1        0.0190
      5 C           9.0523   41.2860    8.4164 C.ar    1  UNL1       -0.0154
      6 C           9.6161   42.2617    9.2427 C.ar    1  UNL1        0.0647
      7 N          10.8002   43.5436   10.6266 N.ar    1  UNL1       -0.1561
      8 N           9.7843   44.2811   10.1854 N.ar    1  UNL1       -0.2584
      9 N           7.9650   43.8754    8.6595 N.ar    1  UNL1       -0.2231
     10 H           9.5917   45.2164   10.4250 H       1  UNL1        0.1906
     11 C          12.7861   40.9587    9.4732 C.2     1  UNL1        0.2508
     12 N          11.6438   41.2463   10.2883 N.am    1  UNL1       -0.2644
     13 O          13.0331   41.6595    8.4546 O.2     1  UNL1       -0.2698
     14 H          11.4830   40.6628   11.0647 H       1  UNL1        0.1566
     15 C          13.6727   39.8361    9.8388 C.ar    1  UNL1        0.0594
     16 C          13.1296   38.6197   10.3015 C.ar    1  UNL1        0.0194
     17 C          13.9768   37.5440   10.6641 C.ar    1  UNL1        0.0604
     18 C          15.8456   38.8420   10.0970 C.ar    1  UNL1        0.1607
     19 C          15.9476   40.8973    9.3494 C.ar    1  UNL1        0.1233
     20 C          15.0675   39.9036    9.7520 C.ar    1  UNL1        0.0607
     21 C          18.2817   38.2986   10.1710 C.3     1  UNL1        0.1554
     22 N          15.3349   37.6681   10.5430 N.ar    1  UNL1       -0.2312
     23 N          17.1335   39.1517    9.9206 N.ar    1  UNL1       -0.2320
     24 N          17.2070   40.3971    9.4678 N.ar    1  UNL1       -0.1663
     25 C          13.3810   36.2479   11.1157 C.3     1  UNL1        0.0404
     26 C          13.1247   35.3453    9.9209 C.3     1  UNL1        0.0063
     27 C          11.9765   36.0925   10.5588 C.3     1  UNL1        0.0063
     28 C           6.1664   43.3671    7.0220 C.3     1  UNL1        0.4349
     29 F           5.0128   42.8456    7.5805 F       1  UNL1       -0.1644
     30 F           6.0710   44.7461    6.9948 F       1  UNL1       -0.1644
     31 F           6.2877   42.8937    5.7277 F       1  UNL1       -0.1644
     32 C           9.6746   39.9295    8.2438 C.3     1  UNL1        0.0226
     33 C           9.0373   39.2147    7.0637 C.3     1  UNL1        0.0047
     34 C          10.4102   39.8261    6.9166 C.3     1  UNL1        0.0047
@<TRIPOS>BOND
     1     1    12    1
     2    11    15    1
     3    16    17   ar
     4    25    17    1
     5    25    26    1
     6    26    27    1
     7    27    25    1
     8    18    22   ar
     9    18    23   ar
    10    19    20   ar
    11    20    15   ar
    12    21    23    1
    13     3     9   ar
    14    28     3    1
    15    28    29    1
    16    28    30    1
    17    28    31    1
    18     4     5   ar
    19    32     5    1
    20    32    33    1
    21    33    34    1
    22    34    32    1
    23     6     1   ar
    24     6     2   ar
    25    12    11   am
    26    23    24   ar
    27     8     7   ar
    28     8     2   ar
    29     1     7   ar
    30    11    13    2
    31    15    16   ar
    32    17    22   ar
    33    19    24   ar
    34    20    18   ar
    35     2     9   ar
    36     3     4   ar
    37     5     6   ar
    38    12    14    1
    39     8    10    1
@<TRIPOS>MOLECULE
MolPort-002-776-346 MCULE-9426573331 PubChem-19614191 ZINC000020607634
 34 39 0 0 0
SMALL
GASTEIGER

@<TRIPOS>ATOM
      1 C           9.9532   41.8220    7.3168 C.ar    1  UNL1        0.1565
      2 C           7.7988   41.7767    7.3254 C.ar    1  UNL1        0.1584
      3 C           6.2935   41.8351    9.1278 C.ar    1  UNL1        0.1539
      4 C           7.3832   41.9128   10.0301 C.ar    1  UNL1        0.0190
      5 C           8.7086   41.9509    9.5485 C.ar    1  UNL1       -0.0154
      6 C           8.8698   41.8642    8.1632 C.ar    1  UNL1        0.0647
      7 N           9.5192   41.7177    6.0378 N.ar    1  UNL1       -0.1561
      8 N           8.1888   41.6884    6.0419 N.ar    1  UNL1       -0.2584
      9 N           6.5222   41.7564    7.7798 N.ar    1  UNL1       -0.2231
     10 H           7.6019   41.6159    5.2548 H       1  UNL1        0.1906
     11 C          12.2720   40.8059    7.5492 C.2     1  UNL1        0.2508
     12 N          11.3266   41.8691    7.7153 N.am    1  UNL1       -0.2644
     13 O          11.9152   39.7125    7.0324 O.2     1  UNL1       -0.2698
     14 H          11.6475   42.6986    8.1373 H       1  UNL1        0.1566
     15 C          13.6685   41.0033    7.9862 C.ar    1  UNL1        0.0594
     16 C          14.2129   40.2081    9.0158 C.ar    1  UNL1        0.0194
     17 C          15.5485   40.4017    9.4459 C.ar    1  UNL1        0.0604
     18 C          15.7993   42.1075    7.8565 C.ar    1  UNL1        0.1607
     19 C          14.3541   42.9027    6.4169 C.ar    1  UNL1        0.1233
     20 C          14.5173   41.9629    7.4238 C.ar    1  UNL1        0.0607
     21 C          17.7690   43.5429    7.3136 C.3     1  UNL1        0.1554
     22 N          16.3334   41.3491    8.8451 N.ar    1  UNL1       -0.2312
     23 N          16.4017   43.0776    7.1626 N.ar    1  UNL1       -0.2320
     24 N          15.5336   43.5677    6.2866 N.ar    1  UNL1       -0.1663
     25 C          16.1210   39.5223   10.5126 C.3     1  UNL1        0.0404
     26 C          17.6339   39.4645   10.3869 C.3     1  UNL1        0.0063
     27 C          16.7934   38.3108    9.8905 C.3     1  UNL1        0.0063
     28 C           4.8929   41.7700    9.6559 C.3     1  UNL1        0.4349
     29 F           4.0903   42.6932    9.0091 F       1  UNL1       -0.1644
     30 F           4.3819   40.5026    9.4460 F       1  UNL1       -0.1644
     31 F           4.8845   42.0453   11.0117 F       1  UNL1       -0.1644
     32 C           9.8806   41.9900   10.4877 C.3     1  UNL1        0.0226
     33 C           9.5110   41.3254   11.8035 C.3     1  UNL1        0.0047
     34 C          10.3756   40.5881   10.8089 C.3     1  UNL1        0.0047
@<TRIPOS>BOND
     1     1    12    1
     2    11    15    1
     3    16    17   ar
     4    25    17    1
     5    25    26    1
     6    26    27    1
     7    27    25    1
     8    18    22   ar
     9    18    23   ar
    10    19    20   ar
    11    20    15   ar
    12    21    23    1
    13     3     9   ar
    14    28     3    1
    15    28    29    1
    16    28    30    1
    17    28    31    1
    18     4     5   ar
    19    32     5    1
    20    32    33    1
    21    33    34    1
    22    34    32    1
    23     6     1   ar
    24     6     2   ar
    25    12    11   am
    26    23    24   ar
    27     8     7   ar
    28     8     2   ar
    29     1     7   ar
    30    11    13    2
    31    15    16   ar
    32    17    22   ar
    33    19    24   ar
    34    20    18   ar
    35     2     9   ar
    36     3     4   ar
    37     5     6   ar
    38    12    14    1
    39     8    10    1
@<TRIPOS>MOLECULE
MolPort-002-776-346 MCULE-9426573331 PubChem-19614191 ZINC000020607634
 34 39 0 0 0
SMALL
GASTEIGER

@<TRIPOS>ATOM
      1 C          10.4639   42.9451    9.6981 C.ar    1  UNL1        0.1565
      2 C           8.3226   43.1429    9.5595 C.ar    1  UNL1        0.1584
      3 C           6.7043   41.5920    8.8564 C.ar    1  UNL1        0.1539
      4 C           7.7252   40.6360    8.6292 C.ar    1  UNL1        0.0190
      5 C           9.0723   40.9492    8.9066 C.ar    1  UNL1       -0.0154
      6 C           9.3282   42.2442    9.3652 C.ar    1  UNL1        0.0647
      7 N          10.1218   44.2009   10.0738 N.ar    1  UNL1       -0.1561
      8 N           8.7997   44.3246    9.9875 N.ar    1  UNL1       -0.2584
      9 N           7.0244   42.8436    9.3110 N.ar    1  UNL1       -0.2231
     10 H           8.2714   45.1285   10.1972 H       1  UNL1        0.1906
     11 C          12.5820   42.2840    8.4572 C.2     1  UNL1        0.2508
     12 N          11.8016   42.4401    9.6482 N.am    1  UNL1       -0.2644
     13 O          12.0946   42.5837    7.3337 O.2     1  UNL1       -0.2698
     14 H          12.2191   42.1789   10.5007 H       1  UNL1        0.1566
     15 C          13.9632   41.7718    8.5580 C.ar    1  UNL1        0.0594
     16 C          15.0266   42.4615    7.9398 C.ar    1  UNL1        0.0194
     17 C          16.3515   41.9677    8.0244 C.ar    1  UNL1        0.0604
     18 C          15.5852   40.1713    9.3222 C.ar    1  UNL1        0.1607
     19 C          13.5531   39.6819    9.9738 C.ar    1  UNL1        0.1233
     20 C          14.2971   40.6043    9.2531 C.ar    1  UNL1        0.0607
     21 C          16.8291   38.2681   10.3543 C.3     1  UNL1        0.1554
     22 N          16.6153   40.8258    8.7321 N.ar    1  UNL1       -0.2312
     23 N          15.6441   39.0473   10.0425 N.ar    1  UNL1       -0.2320
     24 N          14.4164   38.7408   10.4424 N.ar    1  UNL1       -0.1663
     25 C          17.4721   42.7340    7.3952 C.3     1  UNL1        0.0404
     26 C          17.9437   43.8342    8.3306 C.3     1  UNL1        0.0063
     27 C          17.0551   44.1749    7.1567 C.3     1  UNL1        0.0063
     28 C           5.2813   41.2527    8.5330 C.3     1  UNL1        0.4349
     29 F           5.2150   40.5178    7.3623 F       1  UNL1       -0.1644
     30 F           4.7416   40.5073    9.5647 F       1  UNL1       -0.1644
     31 F           4.5424   42.4114    8.3737 F       1  UNL1       -0.1644
     32 C          10.1756   39.9667    8.6332 C.3     1  UNL1        0.0226
     33 C           9.6145   38.7420    7.9298 C.3     1  UNL1        0.0047
     34 C          10.3828   39.7736    7.1388 C.3     1  UNL1        0.0047
@<TRIPOS>BOND
     1     1    12    1
     2    11    15    1
     3    16    17   ar
     4    25    17    1
     5    25    26    1
     6    26    27    1
     7    27    25    1
     8    18    22   ar
     9    18    23   ar
    10    19    20   ar
    11    20    15   ar
    12    21    23    1
    13     3     9   ar
    14    28     3    1
    15    28    29    1
    16    28    30    1
    17    28    31    1
    18     4     5   ar
    19    32     5    1
    20    32    33    1
    21    33    34    1
    22    34    32    1
    23     6     1   ar
    24     6     2   ar
    25    12    11   am
    26    23    24   ar
    27     8     7   ar
    28     8     2   ar
    29     1     7   ar
    30    11    13    2
    31    15    16   ar
    32    17    22   ar
    33    19    24   ar
    34    20    18   ar
    35     2     9   ar
    36     3     4   ar
    37     5     6   ar
    38    12    14    1
    39     8    10    1
@<TRIPOS>MOLECULE
MolPort-002-776-346 MCULE-9426573331 PubChem-19614191 ZINC000020607634
 34 39 0 0 0
SMALL
GASTEIGER

@<TRIPOS>ATOM
      1 C          10.2703   42.6370   10.0045 C.ar    1  UNL1        0.1565
      2 C           8.6068   43.9278    9.5459 C.ar    1  UNL1        0.1584
      3 C           6.7031   43.5288    8.2288 C.ar    1  UNL1        0.1539
      4 C           7.1657   42.2157    7.9651 C.ar    1  UNL1        0.0190
      5 C           8.3690   41.7534    8.5381 C.ar    1  UNL1       -0.0154
      6 C           9.0751   42.6675    9.3245 C.ar    1  UNL1        0.0647
      7 N          10.4789   43.8366   10.5985 N.ar    1  UNL1       -0.1561
      8 N           9.4528   44.6350   10.3150 N.ar    1  UNL1       -0.2584
      9 N           7.4435   44.3735    9.0124 N.ar    1  UNL1       -0.2231
     10 H           9.3354   45.5663   10.6120 H       1  UNL1        0.1906
     11 C          12.2874   41.3112    9.2065 C.2     1  UNL1        0.2508
     12 N          11.1650   41.5226   10.0712 N.am    1  UNL1       -0.2644
     13 O          12.5434   42.1322    8.2846 O.2     1  UNL1       -0.2698
     14 H          10.9958   40.8470   10.7670 H       1  UNL1        0.1566
     15 C          13.1429   40.1246    9.4070 C.ar    1  UNL1        0.0594
     16 C          14.5409   40.2655    9.5279 C.ar    1  UNL1        0.0194
     17 C          15.3665   39.1289    9.7090 C.ar    1  UNL1        0.0604
     18 C          13.4643   37.7581    9.6769 C.ar    1  UNL1        0.1607
     19 C          11.3569   38.2942    9.4221 C.ar    1  UNL1        0.1233
     20 C          12.6377   38.8224    9.4882 C.ar    1  UNL1        0.0607
     21 C          13.2439   35.2823    9.9150 C.3     1  UNL1        0.1554
     22 N          14.8092   37.8813    9.7945 N.ar    1  UNL1       -0.2312
     23 N          12.7451   36.6330    9.7265 N.ar    1  UNL1       -0.2320
     24 N          11.4648   36.9466    9.5722 N.ar    1  UNL1       -0.1663
     25 C          16.8436   39.3016    9.8744 C.3     1  UNL1        0.0404
     26 C          17.4543   38.0437   10.4682 C.3     1  UNL1        0.0063
     27 C          17.2174   39.2509   11.3457 C.3     1  UNL1        0.0063
     28 C           5.4362   44.0135    7.5925 C.3     1  UNL1        0.4349
     29 F           4.3375   43.4394    8.2073 F       1  UNL1       -0.1644
     30 F           5.3564   45.3880    7.7181 F       1  UNL1       -0.1644
     31 F           5.4214   43.6776    6.2505 F       1  UNL1       -0.1644
     32 C           8.9006   40.3805    8.2382 C.3     1  UNL1        0.0226
     33 C           8.1788   39.7983    7.0342 C.3     1  UNL1        0.0047
     34 C           9.5803   40.3383    6.8782 C.3     1  UNL1        0.0047
@<TRIPOS>BOND
     1     1    12    1
     2    11    15    1
     3    16    17   ar
     4    25    17    1
     5    25    26    1
     6    26    27    1
     7    27    25    1
     8    18    22   ar
     9    18    23   ar
    10    19    20   ar
    11    20    15   ar
    12    21    23    1
    13     3     9   ar
    14    28     3    1
    15    28    29    1
    16    28    30    1
    17    28    31    1
    18     4     5   ar
    19    32     5    1
    20    32    33    1
    21    33    34    1
    22    34    32    1
    23     6     1   ar
    24     6     2   ar
    25    12    11   am
    26    23    24   ar
    27     8     7   ar
    28     8     2   ar
    29     1     7   ar
    30    11    13    2
    31    15    16   ar
    32    17    22   ar
    33    19    24   ar
    34    20    18   ar
    35     2     9   ar
    36     3     4   ar
    37     5     6   ar
    38    12    14    1
    39     8    10    1
