@<TRIPOS>MOLECULE
Molport-020-278-644 MCULE-4525318161 PubChem-110255516
 26 28 0 0 0
SMALL
GASTEIGER

@<TRIPOS>ATOM
      1 C           8.6914   39.5746    7.0772 C.3     1  UNL1        0.0522
      2 C          10.1162   39.9831    7.1826 C.ar    1  UNL1        0.0635
      3 C          10.5922   41.0522    6.4268 C.ar    1  UNL1        0.0492
      4 C          11.9381   41.4148    6.5466 C.ar    1  UNL1        0.1368
      5 C          12.2623   39.6753    8.1243 C.ar    1  UNL1        0.1414
      6 N          12.7405   40.7168    7.3936 N.ar    1  UNL1       -0.2158
      7 N          10.9545   39.3150    8.0155 N.ar    1  UNL1       -0.2348
      8 C          13.1794   38.9392    9.0433 C.3     1  UNL1        0.0785
      9 C          12.3886   38.2421   10.1525 C.3     1  UNL1        0.0110
     10 C          13.3333   37.4902   11.0877 C.3     1  UNL1        0.0220
     11 C          14.3501   38.4563   11.6877 C.3     1  UNL1        0.0935
     12 C          14.2188   39.8892    9.6382 C.3     1  UNL1        0.1009
     13 C          16.4647   39.1487   10.4957 C.2     1  UNL1        0.2559
     14 N          15.0347   39.1708   10.6131 N.am    1  UNL1       -0.2771
     15 O          17.0331   39.7689    9.5577 O.2     1  UNL1       -0.2721
     16 C          17.3059   38.4263   11.4949 C.3     1  UNL1        0.2272
     17 C          18.7945   36.9335   10.8482 C.3     1  UNL1        0.1748
     18 O          17.4361   37.0897   11.1193 O.3     1  UNL1       -0.3417
     19 N          12.4994   42.5052    5.8020 N.pl3   1  UNL1       -0.2679
     20 H          11.9773   42.8185    5.0284 H       1  UNL1        0.1565
     21 C          13.7331   43.1916    6.0544 C.ar    1  UNL1        0.2218
     22 C          15.1329   45.0853    5.8030 C.ar    1  UNL1        0.1034
     23 C          16.1226   44.4697    6.5664 C.ar    1  UNL1        0.0414
     24 C          15.8739   43.1919    7.0640 C.ar    1  UNL1        0.1034
     25 N          13.9623   44.4397    5.5615 N.ar    1  UNL1       -0.2120
     26 N          14.6903   42.5789    6.8006 N.ar    1  UNL1       -0.2120
@<TRIPOS>BOND
     1     1     2    1
     2     2     7   ar
     3     3     4   ar
     4     4    19    1
     5     5     6   ar
     6     8     5    1
     7     8     9    1
     8     9    10    1
     9    10    11    1
    10    11    14    1
    11    12    14    1
    12    12     8    1
    13    16    13    1
    14    16    18    1
    15    17    18    1
    16    21    26   ar
    17    22    25   ar
    18    23    24   ar
    19    14    13   am
    20    19    21    1
    21     2     3   ar
    22     4     6   ar
    23     5     7   ar
    24    13    15    2
    25    21    25   ar
    26    22    23   ar
    27    24    26   ar
    28    19    20    1
@<TRIPOS>MOLECULE
Molport-020-278-644 MCULE-4525318161 PubChem-110255516
 26 28 0 0 0
SMALL
GASTEIGER

@<TRIPOS>ATOM
      1 C          10.3204   42.0902   10.8733 C.3     1  UNL1        0.0522
      2 C          11.1091   41.4516    9.7879 C.ar    1  UNL1        0.0635
      3 C          11.5448   42.2106    8.7041 C.ar    1  UNL1        0.0492
      4 C          12.2858   41.5827    7.6971 C.ar    1  UNL1        0.1368
      5 C          12.1268   39.5270    8.8671 C.ar    1  UNL1        0.1414
      6 N          12.5590   40.2552    7.8040 N.ar    1  UNL1       -0.2158
      7 N          11.4057   40.1284    9.8522 N.ar    1  UNL1       -0.2348
      8 C          12.4524   38.0725    8.9436 C.3     1  UNL1        0.0785
      9 C          11.6420   37.3943   10.0503 C.3     1  UNL1        0.0110
     10 C          11.9795   35.9066   10.1216 C.3     1  UNL1        0.0220
     11 C          13.4735   35.7228   10.3693 C.3     1  UNL1        0.0935
     12 C          13.9503   37.8694    9.1712 C.3     1  UNL1        0.1009
     13 C          15.1949   35.7814    8.5240 C.2     1  UNL1        0.2559
     14 N          14.2281   36.4470    9.3495 N.am    1  UNL1       -0.2771
     15 O          15.8307   36.4259    7.6475 O.2     1  UNL1       -0.2721
     16 C          15.4926   34.3304    8.7081 C.3     1  UNL1        0.2272
     17 C          17.0748   32.7944    8.7260 C.3     1  UNL1        0.1748
     18 O          16.8585   34.1565    8.9289 O.3     1  UNL1       -0.3417
     19 N          12.7696   42.2992    6.5520 N.pl3   1  UNL1       -0.2679
     20 H          12.2265   42.2298    5.7338 H       1  UNL1        0.1565
     21 C          13.9527   43.1046    6.4615 C.ar    1  UNL1        0.2218
     22 C          16.2165   43.5210    7.0191 C.ar    1  UNL1        0.1034
     23 C          16.2018   44.6875    6.2574 C.ar    1  UNL1        0.0414
     24 C          15.0216   45.0336    5.6021 C.ar    1  UNL1        0.1034
     25 N          15.0986   42.7541    7.1077 N.ar    1  UNL1       -0.2120
     26 N          13.9241   44.2405    5.7151 N.ar    1  UNL1       -0.2120
@<TRIPOS>BOND
     1     1     2    1
     2     2     7   ar
     3     3     4   ar
     4     4    19    1
     5     5     6   ar
     6     8     5    1
     7     8     9    1
     8     9    10    1
     9    10    11    1
    10    11    14    1
    11    12    14    1
    12    12     8    1
    13    16    13    1
    14    16    18    1
    15    17    18    1
    16    21    26   ar
    17    22    25   ar
    18    23    24   ar
    19    14    13   am
    20    19    21    1
    21     2     3   ar
    22     4     6   ar
    23     5     7   ar
    24    13    15    2
    25    21    25   ar
    26    22    23   ar
    27    24    26   ar
    28    19    20    1
@<TRIPOS>MOLECULE
Molport-020-278-644 MCULE-4525318161 PubChem-110255516
 26 28 0 0 0
SMALL
GASTEIGER

@<TRIPOS>ATOM
      1 C           2.6890   41.3972    9.4242 C.3     1  UNL1        0.0522
      2 C           4.1692   41.4454    9.5452 C.ar    1  UNL1        0.0635
      3 C           4.7581   41.7928   10.7590 C.ar    1  UNL1        0.0492
      4 C           6.1541   41.8298   10.8437 C.ar    1  UNL1        0.1368
      5 C           6.3054   41.1901    8.5659 C.ar    1  UNL1        0.1414
      6 N           6.8938   41.5268    9.7439 N.ar    1  UNL1       -0.2158
      7 N           4.9482   41.1507    8.4732 N.ar    1  UNL1       -0.2348
      8 C           7.1575   40.8629    7.3851 C.3     1  UNL1        0.0785
      9 C           6.5835   39.6699    6.6179 C.3     1  UNL1        0.0110
     10 C           7.4597   39.3420    5.4108 C.3     1  UNL1        0.0220
     11 C           8.8844   39.0434    5.8673 C.3     1  UNL1        0.0935
     12 C           8.5949   40.5809    7.8225 C.3     1  UNL1        0.1009
     13 C          10.5940   40.8449    6.3187 C.2     1  UNL1        0.2559
     14 N           9.3824   40.1595    6.6674 N.am    1  UNL1       -0.2771
     15 O          11.0018   41.8081    7.0214 O.2     1  UNL1       -0.2721
     16 C          11.4104   40.4126    5.1463 C.3     1  UNL1        0.2272
     17 C          10.9452   39.0378    3.4861 C.3     1  UNL1        0.1748
     18 O          10.5880   40.2710    4.0291 O.3     1  UNL1       -0.3417
     19 N           6.8317   42.1770   12.0597 N.pl3   1  UNL1       -0.2679
     20 H           6.3386   42.7593   12.6818 H       1  UNL1        0.1565
     21 C           8.1441   41.7737   12.4740 C.ar    1  UNL1        0.2218
     22 C           9.6785   41.1627   14.1714 C.ar    1  UNL1        0.1034
     23 C          10.6840   41.0011   13.2207 C.ar    1  UNL1        0.0414
     24 C          10.3732   41.2402   11.8834 C.ar    1  UNL1        0.1034
     25 N           8.4333   41.5440   13.7843 N.ar    1  UNL1       -0.2120
     26 N           9.1159   41.6202   11.5357 N.ar    1  UNL1       -0.2120
@<TRIPOS>BOND
     1     1     2    1
     2     2     7   ar
     3     3     4   ar
     4     4    19    1
     5     5     6   ar
     6     8     5    1
     7     8     9    1
     8     9    10    1
     9    10    11    1
    10    11    14    1
    11    12    14    1
    12    12     8    1
    13    16    13    1
    14    16    18    1
    15    17    18    1
    16    21    26   ar
    17    22    25   ar
    18    23    24   ar
    19    14    13   am
    20    19    21    1
    21     2     3   ar
    22     4     6   ar
    23     5     7   ar
    24    13    15    2
    25    21    25   ar
    26    22    23   ar
    27    24    26   ar
    28    19    20    1
@<TRIPOS>MOLECULE
Molport-020-278-644 MCULE-4525318161 PubChem-110255516
 26 28 0 0 0
SMALL
GASTEIGER

@<TRIPOS>ATOM
      1 C          13.9468   39.1139   11.6636 C.3     1  UNL1        0.0522
      2 C          13.2394   39.9692   10.6756 C.ar    1  UNL1        0.0635
      3 C          13.8351   40.2560    9.4494 C.ar    1  UNL1        0.0492
      4 C          13.1456   41.0637    8.5386 C.ar    1  UNL1        0.1368
      5 C          11.3502   41.2566   10.0747 C.ar    1  UNL1        0.1414
      6 N          11.9188   41.5441    8.8741 N.ar    1  UNL1       -0.2158
      7 N          12.0123   40.4713   10.9674 N.ar    1  UNL1       -0.2348
      8 C          10.0002   41.8041   10.3991 C.3     1  UNL1        0.0785
      9 C           9.5351   41.3173   11.7732 C.3     1  UNL1        0.0110
     10 C           8.1542   41.8825   12.0987 C.3     1  UNL1        0.0220
     11 C           7.1551   41.4682   11.0228 C.3     1  UNL1        0.0935
     12 C           8.9901   41.4155    9.3196 C.3     1  UNL1        0.1009
     13 C           6.8857   42.7074    8.8403 C.2     1  UNL1        0.2559
     14 N           7.6587   41.8692    9.7116 N.am    1  UNL1       -0.2771
     15 O           7.3425   43.0443    7.7154 O.2     1  UNL1       -0.2721
     16 C           5.5193   43.1656    9.2290 C.3     1  UNL1        0.2272
     17 C           3.9371   44.4182    8.3398 C.3     1  UNL1        0.1748
     18 O           5.2830   44.4350    8.7023 O.3     1  UNL1       -0.3417
     19 N          13.6942   41.4006    7.2564 N.pl3   1  UNL1       -0.2679
     20 H          13.5096   40.7688    6.5243 H       1  UNL1        0.1565
     21 C          14.4804   42.5513    6.9178 C.ar    1  UNL1        0.2218
     22 C          16.4693   43.8231    7.1066 C.ar    1  UNL1        0.1034
     23 C          15.9527   44.7817    6.2373 C.ar    1  UNL1        0.0414
     24 C          14.6733   44.5842    5.7212 C.ar    1  UNL1        0.1034
     25 N          15.7288   42.7310    7.4301 N.ar    1  UNL1       -0.2120
     26 N          13.9638   43.4788    6.0687 N.ar    1  UNL1       -0.2120
@<TRIPOS>BOND
     1     1     2    1
     2     2     7   ar
     3     3     4   ar
     4     4    19    1
     5     5     6   ar
     6     8     5    1
     7     8     9    1
     8     9    10    1
     9    10    11    1
    10    11    14    1
    11    12    14    1
    12    12     8    1
    13    16    13    1
    14    16    18    1
    15    17    18    1
    16    21    26   ar
    17    22    25   ar
    18    23    24   ar
    19    14    13   am
    20    19    21    1
    21     2     3   ar
    22     4     6   ar
    23     5     7   ar
    24    13    15    2
    25    21    25   ar
    26    22    23   ar
    27    24    26   ar
    28    19    20    1
@<TRIPOS>MOLECULE
Molport-020-278-644 MCULE-4525318161 PubChem-110255516
 26 28 0 0 0
SMALL
GASTEIGER

@<TRIPOS>ATOM
      1 C          13.2414   39.2705   10.0579 C.3     1  UNL1        0.0522
      2 C          12.4335   40.0922    9.1197 C.ar    1  UNL1        0.0635
      3 C          13.0598   40.7961    8.0935 C.ar    1  UNL1        0.0492
      4 C          12.2740   41.5613    7.2250 C.ar    1  UNL1        0.1368
      5 C          10.3297   40.9049    8.4120 C.ar    1  UNL1        0.1414
      6 N          10.9270   41.5964    7.4058 N.ar    1  UNL1       -0.2158
      7 N          11.0851   40.1571    9.2619 N.ar    1  UNL1       -0.2348
      8 C           8.8472   40.9710    8.5711 C.3     1  UNL1        0.0785
      9 C           8.1939   41.5519    7.3152 C.3     1  UNL1        0.0110
     10 C           6.6774   41.6152    7.4849 C.3     1  UNL1        0.0220
     11 C           6.3248   42.4596    8.7054 C.3     1  UNL1        0.0935
     12 C           8.4761   41.7971    9.8026 C.3     1  UNL1        0.1009
     13 C           6.3110   41.5448   11.0580 C.2     1  UNL1        0.2559
     14 N           7.0245   41.9373    9.8765 N.am    1  UNL1       -0.2771
     15 O           6.9355   41.0926   12.0546 O.2     1  UNL1       -0.2721
     16 C           4.8286   41.6960   11.1453 C.3     1  UNL1        0.2272
     17 C           3.1349   41.1041    9.8633 C.3     1  UNL1        0.1748
     18 O           4.2096   40.5813   10.5807 O.3     1  UNL1       -0.3417
     19 N          12.8473   42.3114    6.1446 N.pl3   1  UNL1       -0.2679
     20 H          12.4051   42.2217    5.2696 H       1  UNL1        0.1565
     21 C          13.9900   43.1766    6.1920 C.ar    1  UNL1        0.2218
     22 C          15.0493   45.2307    5.6744 C.ar    1  UNL1        0.1034
     23 C          16.2140   44.8032    6.3084 C.ar    1  UNL1        0.0414
     24 C          16.2260   43.5330    6.8816 C.ar    1  UNL1        0.1034
     25 N          13.9638   44.4151    5.6273 N.ar    1  UNL1       -0.2120
     26 N          15.1201   42.7466    6.8135 N.ar    1  UNL1       -0.2120
@<TRIPOS>BOND
     1     1     2    1
     2     2     7   ar
     3     3     4   ar
     4     4    19    1
     5     5     6   ar
     6     8     5    1
     7     8     9    1
     8     9    10    1
     9    10    11    1
    10    11    14    1
    11    12    14    1
    12    12     8    1
    13    16    13    1
    14    16    18    1
    15    17    18    1
    16    21    26   ar
    17    22    25   ar
    18    23    24   ar
    19    14    13   am
    20    19    21    1
    21     2     3   ar
    22     4     6   ar
    23     5     7   ar
    24    13    15    2
    25    21    25   ar
    26    22    23   ar
    27    24    26   ar
    28    19    20    1
@<TRIPOS>MOLECULE
Molport-020-278-644 MCULE-4525318161 PubChem-110255516
 26 28 0 0 0
SMALL
GASTEIGER

@<TRIPOS>ATOM
      1 C          15.5263   44.8466    5.8242 C.3     1  UNL1        0.0522
      2 C          15.0109   43.7184    6.6425 C.ar    1  UNL1        0.0635
      3 C          15.8998   42.8791    7.3104 C.ar    1  UNL1        0.0492
      4 C          15.3861   41.8251    8.0737 C.ar    1  UNL1        0.1368
      5 C          13.1842   42.4768    7.4846 C.ar    1  UNL1        0.1414
      6 N          14.0396   41.6503    8.1422 N.ar    1  UNL1       -0.2158
      7 N          13.6738   43.5053    6.7399 N.ar    1  UNL1       -0.2348
      8 C          11.7131   42.2482    7.5906 C.3     1  UNL1        0.0785
      9 C          11.2829   42.1653    9.0566 C.3     1  UNL1        0.0110
     10 C           9.7768   41.9327    9.1569 C.3     1  UNL1        0.0220
     11 C           9.3974   40.6524    8.4194 C.3     1  UNL1        0.0935
     12 C          11.3120   40.9790    6.8388 C.3     1  UNL1        0.1009
     13 C           9.0050   40.5610    5.9275 C.2     1  UNL1        0.2559
     14 N           9.8903   40.7184    7.0459 N.am    1  UNL1       -0.2771
     15 O           9.4522   40.6263    4.7513 O.2     1  UNL1       -0.2721
     16 C           7.5528   40.2827    6.1312 C.3     1  UNL1        0.2272
     17 C           6.8486   42.3559    6.3942 C.3     1  UNL1        0.1748
     18 O           6.7939   41.2765    5.5138 O.3     1  UNL1       -0.3417
     19 N          16.2391   40.9210    8.7903 N.pl3   1  UNL1       -0.2679
     20 H          17.1877   40.9163    8.5268 H       1  UNL1        0.1565
     21 C          15.8697   40.0234    9.8461 C.ar    1  UNL1        0.2218
     22 C          16.4322   38.3607   11.4361 C.ar    1  UNL1        0.1034
     23 C          15.1097   38.3135   11.8719 C.ar    1  UNL1        0.0414
     24 C          14.1815   39.1520   11.2577 C.ar    1  UNL1        0.1034
     25 N          16.7875   39.2096   10.4367 N.ar    1  UNL1       -0.2120
     26 N          14.5756   39.9874   10.2613 N.ar    1  UNL1       -0.2120
@<TRIPOS>BOND
     1     1     2    1
     2     2     7   ar
     3     3     4   ar
     4     4    19    1
     5     5     6   ar
     6     8     5    1
     7     8     9    1
     8     9    10    1
     9    10    11    1
    10    11    14    1
    11    12    14    1
    12    12     8    1
    13    16    13    1
    14    16    18    1
    15    17    18    1
    16    21    26   ar
    17    22    25   ar
    18    23    24   ar
    19    14    13   am
    20    19    21    1
    21     2     3   ar
    22     4     6   ar
    23     5     7   ar
    24    13    15    2
    25    21    25   ar
    26    22    23   ar
    27    24    26   ar
    28    19    20    1
@<TRIPOS>MOLECULE
Molport-020-278-644 MCULE-4525318161 PubChem-110255516
 26 28 0 0 0
SMALL
GASTEIGER

@<TRIPOS>ATOM
      1 C           9.4960   38.5949    3.2380 C.3     1  UNL1        0.0522
      2 C           9.6736   39.3368    4.5132 C.ar    1  UNL1        0.0635
      3 C           8.5840   39.5443    5.3561 C.ar    1  UNL1        0.0492
      4 C           8.7809   40.2458    6.5504 C.ar    1  UNL1        0.1368
      5 C          11.0785   40.4940    6.0214 C.ar    1  UNL1        0.1414
      6 N          10.0247   40.7034    6.8539 N.ar    1  UNL1       -0.2158
      7 N          10.8976   39.8123    4.8576 N.ar    1  UNL1       -0.2348
      8 C          12.4267   41.0126    6.3967 C.3     1  UNL1        0.0785
      9 C          12.8643   40.4513    7.7512 C.3     1  UNL1        0.0110
     10 C          14.2447   40.9852    8.1277 C.3     1  UNL1        0.0220
     11 C          14.2201   42.5099    8.1681 C.3     1  UNL1        0.0935
     12 C          12.4256   42.5411    6.4219 C.3     1  UNL1        0.1009
     13 C          14.4871   43.9486    6.1112 C.2     1  UNL1        0.2559
     14 N          13.7208   43.0220    6.8944 N.am    1  UNL1       -0.2771
     15 O          14.0379   44.3732    5.0132 O.2     1  UNL1       -0.2721
     16 C          15.8065   44.4536    6.5930 C.3     1  UNL1        0.2272
     17 C          17.7831   43.6545    6.0299 C.3     1  UNL1        0.1748
     18 O          16.7286   44.4279    5.5472 O.3     1  UNL1       -0.3417
     19 N           7.7077   40.4968    7.4689 N.pl3   1  UNL1       -0.2679
     20 H           7.4621   39.7529    8.0652 H       1  UNL1        0.1565
     21 C           6.9512   41.7059    7.6188 C.ar    1  UNL1        0.2218
     22 C           6.3689   43.8827    6.8899 C.ar    1  UNL1        0.1034
     23 C           5.4747   44.0115    7.9506 C.ar    1  UNL1        0.0414
     24 C           5.3462   42.9456    8.8392 C.ar    1  UNL1        0.1034
     25 N           7.0875   42.7392    6.7430 N.ar    1  UNL1       -0.2120
     26 N           6.0826   41.8181    8.6587 N.ar    1  UNL1       -0.2120
@<TRIPOS>BOND
     1     1     2    1
     2     2     7   ar
     3     3     4   ar
     4     4    19    1
     5     5     6   ar
     6     8     5    1
     7     8     9    1
     8     9    10    1
     9    10    11    1
    10    11    14    1
    11    12    14    1
    12    12     8    1
    13    16    13    1
    14    16    18    1
    15    17    18    1
    16    21    26   ar
    17    22    25   ar
    18    23    24   ar
    19    14    13   am
    20    19    21    1
    21     2     3   ar
    22     4     6   ar
    23     5     7   ar
    24    13    15    2
    25    21    25   ar
    26    22    23   ar
    27    24    26   ar
    28    19    20    1
@<TRIPOS>MOLECULE
Molport-020-278-644 MCULE-4525318161 PubChem-110255516
 26 28 0 0 0
SMALL
GASTEIGER

@<TRIPOS>ATOM
      1 C          17.3260   43.6303    7.0719 C.3     1  UNL1        0.0522
      2 C          16.4027   42.6456    7.6930 C.ar    1  UNL1        0.0635
      3 C          16.8754   41.7607    8.6597 C.ar    1  UNL1        0.0492
      4 C          15.9833   40.8447    9.2275 C.ar    1  UNL1        0.1368
      5 C          14.2386   41.7126    7.8773 C.ar    1  UNL1        0.1414
      6 N          14.6857   40.8437    8.8220 N.ar    1  UNL1       -0.2158
      7 N          15.0982   42.6079    7.3192 N.ar    1  UNL1       -0.2348
      8 C          12.8048   41.6768    7.4646 C.3     1  UNL1        0.0785
      9 C          11.8977   42.0944    8.6241 C.3     1  UNL1        0.0110
     10 C          10.4328   42.0567    8.1940 C.3     1  UNL1        0.0220
     11 C          10.0674   40.6561    7.7122 C.3     1  UNL1        0.0935
     12 C          12.4266   40.2846    6.9591 C.3     1  UNL1        0.1009
     13 C          10.5292   39.8396    5.3688 C.2     1  UNL1        0.2559
     14 N          10.9972   40.2448    6.6633 N.am    1  UNL1       -0.2771
     15 O          11.3503   39.4932    4.4780 O.2     1  UNL1       -0.2721
     16 C           9.0693   39.7852    5.0626 C.3     1  UNL1        0.2272
     17 C           9.1608   38.7478    3.1189 C.3     1  UNL1        0.1748
     18 O           8.7649   38.5731    4.4440 O.3     1  UNL1       -0.3417
     19 N          16.3965   39.9043   10.2292 N.pl3   1  UNL1       -0.2679
     20 H          16.0069   40.0236   11.1254 H       1  UNL1        0.1565
     21 C          17.3113   38.8105   10.0759 C.ar    1  UNL1        0.2218
     22 C          17.7659   36.5661    9.4716 C.ar    1  UNL1        0.1034
     23 C          19.1091   36.7375    9.7996 C.ar    1  UNL1        0.0414
     24 C          19.5202   37.9829   10.2709 C.ar    1  UNL1        0.1034
     25 N          16.8952   37.5992    9.6145 N.ar    1  UNL1       -0.2120
     26 N          18.6192   38.9916   10.4000 N.ar    1  UNL1       -0.2120
@<TRIPOS>BOND
     1     1     2    1
     2     2     7   ar
     3     3     4   ar
     4     4    19    1
     5     5     6   ar
     6     8     5    1
     7     8     9    1
     8     9    10    1
     9    10    11    1
    10    11    14    1
    11    12    14    1
    12    12     8    1
    13    16    13    1
    14    16    18    1
    15    17    18    1
    16    21    26   ar
    17    22    25   ar
    18    23    24   ar
    19    14    13   am
    20    19    21    1
    21     2     3   ar
    22     4     6   ar
    23     5     7   ar
    24    13    15    2
    25    21    25   ar
    26    22    23   ar
    27    24    26   ar
    28    19    20    1
@<TRIPOS>MOLECULE
Molport-020-278-644 MCULE-4525318161 PubChem-110255516
 26 28 0 0 0
SMALL
GASTEIGER

@<TRIPOS>ATOM
      1 C          13.9307   38.6642   11.8103 C.3     1  UNL1        0.0522
      2 C          13.6887   39.6183   10.6972 C.ar    1  UNL1        0.0635
      3 C          14.7578   40.0883    9.9376 C.ar    1  UNL1        0.0492
      4 C          14.5000   40.9856    8.8956 C.ar    1  UNL1        0.1368
      5 C          12.1859   40.9057    9.4042 C.ar    1  UNL1        0.1414
      6 N          13.2191   41.3721    8.6543 N.ar    1  UNL1       -0.2158
      7 N          12.4259   40.0321   10.4197 N.ar    1  UNL1       -0.2348
      8 C          10.7954   41.3557    9.1016 C.3     1  UNL1        0.0785
      9 C           9.9172   41.2766   10.3521 C.3     1  UNL1        0.0110
     10 C           8.4968   41.7398   10.0350 C.3     1  UNL1        0.0220
     11 C           7.9075   40.8845    8.9177 C.3     1  UNL1        0.0935
     12 C          10.1964   40.5220    7.9689 C.3     1  UNL1        0.1009
     13 C           8.3418   41.3228    6.4701 C.2     1  UNL1        0.2559
     14 N           8.8030   40.9076    7.7639 N.am    1  UNL1       -0.2771
     15 O           9.1338   41.3390    5.4902 O.2     1  UNL1       -0.2721
     16 C           6.9164   41.7072    6.2502 C.3     1  UNL1        0.2272
     17 C           6.7147   43.8385    6.7791 C.3     1  UNL1        0.1748
     18 O           6.8559   42.9821    5.6883 O.3     1  UNL1       -0.3417
     19 N          15.5490   41.5111    8.0697 N.pl3   1  UNL1       -0.2679
     20 H          16.4039   41.0233    8.0889 H       1  UNL1        0.1565
     21 C          15.4962   42.6649    7.2195 C.ar    1  UNL1        0.2218
     22 C          14.3904   43.9837    5.5926 C.ar    1  UNL1        0.1034
     23 C          15.4418   44.8979    5.6021 C.ar    1  UNL1        0.0414
     24 C          16.5211   44.6545    6.4495 C.ar    1  UNL1        0.1034
     25 N          14.4353   42.8895    6.3964 N.ar    1  UNL1       -0.2120
     26 N          16.5291   43.5485    7.2387 N.ar    1  UNL1       -0.2120
@<TRIPOS>BOND
     1     1     2    1
     2     2     7   ar
     3     3     4   ar
     4     4    19    1
     5     5     6   ar
     6     8     5    1
     7     8     9    1
     8     9    10    1
     9    10    11    1
    10    11    14    1
    11    12    14    1
    12    12     8    1
    13    16    13    1
    14    16    18    1
    15    17    18    1
    16    21    26   ar
    17    22    25   ar
    18    23    24   ar
    19    14    13   am
    20    19    21    1
    21     2     3   ar
    22     4     6   ar
    23     5     7   ar
    24    13    15    2
    25    21    25   ar
    26    22    23   ar
    27    24    26   ar
    28    19    20    1
@<TRIPOS>MOLECULE
Molport-020-278-644 MCULE-4525318161 PubChem-110255516
 26 28 0 0 0
SMALL
GASTEIGER

@<TRIPOS>ATOM
      1 C          10.3708   40.2080    4.2832 C.3     1  UNL1        0.0522
      2 C          10.6980   40.8247    5.5950 C.ar    1  UNL1        0.0635
      3 C          12.0275   41.0373    5.9527 C.ar    1  UNL1        0.0492
      4 C          12.3057   41.6200    7.1938 C.ar    1  UNL1        0.1368
      5 C           9.9829   41.7471    7.6506 C.ar    1  UNL1        0.1414
      6 N          11.2754   41.9612    8.0126 N.ar    1  UNL1       -0.2158
      7 N           9.7016   41.1815    6.4452 N.ar    1  UNL1       -0.2348
      8 C           8.8838   42.1399    8.5807 C.3     1  UNL1        0.0785
      9 C           9.0338   41.4275    9.9266 C.3     1  UNL1        0.0110
     10 C           7.9067   41.8353   10.8731 C.3     1  UNL1        0.0220
     11 C           6.5555   41.5062   10.2461 C.3     1  UNL1        0.0935
     12 C           7.5207   41.8358    7.9591 C.3     1  UNL1        0.1009
     13 C           5.3956   43.0222    8.5945 C.2     1  UNL1        0.2559
     14 N           6.4673   42.1278    8.9272 N.am    1  UNL1       -0.2771
     15 O           5.3426   43.5503    7.4517 O.2     1  UNL1       -0.2721
     16 C           4.3089   43.3164    9.5746 C.3     1  UNL1        0.2272
     17 C           2.9305   41.5968    9.4983 C.3     1  UNL1        0.1748
     18 O           3.0825   42.9083    9.0512 O.3     1  UNL1       -0.3417
     19 N          13.6492   41.8712    7.6302 N.pl3   1  UNL1       -0.2679
     20 H          13.9779   41.3126    8.3712 H       1  UNL1        0.1565
     21 C          14.5688   42.8419    7.1116 C.ar    1  UNL1        0.2218
     22 C          16.7587   43.7266    6.9367 C.ar    1  UNL1        0.1034
     23 C          16.2974   44.7322    6.0898 C.ar    1  UNL1        0.0414
     24 C          14.9406   44.7580    5.7729 C.ar    1  UNL1        0.1034
     25 N          15.8919   42.8043    7.4302 N.ar    1  UNL1       -0.2120
     26 N          14.1050   43.8178    6.2866 N.ar    1  UNL1       -0.2120
@<TRIPOS>BOND
     1     1     2    1
     2     2     7   ar
     3     3     4   ar
     4     4    19    1
     5     5     6   ar
     6     8     5    1
     7     8     9    1
     8     9    10    1
     9    10    11    1
    10    11    14    1
    11    12    14    1
    12    12     8    1
    13    16    13    1
    14    16    18    1
    15    17    18    1
    16    21    26   ar
    17    22    25   ar
    18    23    24   ar
    19    14    13   am
    20    19    21    1
    21     2     3   ar
    22     4     6   ar
    23     5     7   ar
    24    13    15    2
    25    21    25   ar
    26    22    23   ar
    27    24    26   ar
    28    19    20    1
