@<TRIPOS>MOLECULE
MolPort-047-139-225 MCULE-6161825793 MCULE-9725615455 PubChem-146070115 PubChem-146070116
 29 32 0 0 0
SMALL
GASTEIGER

@<TRIPOS>ATOM
      1 C          15.6458   38.3362    9.4879 C.3     1  UNL1        0.0741
      2 C          14.3050   37.8171    9.0055 C.3     1  UNL1        0.0355
      3 C          13.7429   36.8956   10.0866 C.3     1  UNL1        0.0031
      4 C          12.4327   36.2810    9.6274 C.3     1  UNL1        0.0019
      5 C          11.2322   37.0685   10.1452 C.3     1  UNL1        0.0215
      6 C          11.3965   38.5876   10.0562 C.3     1  UNL1        0.0922
      7 C          13.5241   39.1042    8.7958 C.3     1  UNL1        0.0914
      8 C          14.0645   40.0678    9.8259 C.3     1  UNL1        0.0924
      9 N          15.4401   39.6531   10.1029 N.3     1  UNL1       -0.2662
     10 N          12.0604   38.9914    8.8159 N.pl3   1  UNL1       -0.2925
     11 C          11.3229   39.7011    7.7996 C.ar    1  UNL1        0.1452
     12 C          10.2105   40.5186    8.1109 C.ar    1  UNL1        0.0824
     13 C           9.5477   41.1758    7.0655 C.ar    1  UNL1        0.0191
     14 C           9.9702   41.0223    5.7476 C.ar    1  UNL1        0.0220
     15 C          11.0587   40.1983    5.4781 C.ar    1  UNL1        0.1004
     16 N          11.6985   39.5638    6.4942 N.ar    1  UNL1       -0.2279
     17 C           9.9965   41.7083   10.3783 C.2     1  UNL1        0.2267
     18 C           9.4113   41.6527   11.7427 C.3     1  UNL1        0.0949
     19 N           9.7451   40.6334    9.4645 N.am    1  UNL1       -0.2817
     20 O          10.7051   42.6961   10.0502 O.2     1  UNL1       -0.2748
     21 H           9.1924   39.8919    9.8019 H       1  UNL1        0.1549
     22 C          16.3960   40.6247    9.5488 C.3     1  UNL1        0.1183
     23 C          17.7056   43.1787    8.4369 C.3     1  UNL1        0.1534
     24 C          14.4885   42.5230    7.1064 C.ar    1  UNL1        0.0802
     25 C          13.3357   42.8632    6.2324 C.3     1  UNL1        0.0540
     26 C          14.5617   41.4070    7.9261 C.ar    1  UNL1        0.0321
     27 C          15.8054   41.5525    8.5157 C.ar    1  UNL1        0.0730
     28 N          16.3945   42.6752    8.0641 N.ar    1  UNL1       -0.2518
     29 N          15.5995   43.2773    7.2004 N.ar    1  UNL1       -0.1739
@<TRIPOS>BOND
     1    23    28    1
     2    24    26   ar
     3    25    24    1
     4    27    28   ar
     5    22    27    1
     6    22     9    1
     7     1     9    1
     8     2     1    1
     9     2     3    1
    10     3     4    1
    11     4     5    1
    12     5     6    1
    13     6    10    1
    14     7    10    1
    15     7     8    1
    16     7     2    1
    17     8     9    1
    18    11    16   ar
    19    12    19    1
    20    12    13   ar
    21    18    17    1
    22    14    15   ar
    23    28    29   ar
    24    10    11    1
    25    19    17   am
    26    24    29   ar
    27    26    27   ar
    28    11    12   ar
    29    17    20    2
    30    13    14   ar
    31    15    16   ar
    32    19    21    1
@<TRIPOS>MOLECULE
MolPort-047-139-225 MCULE-6161825793 MCULE-9725615455 PubChem-146070115 PubChem-146070116
 29 32 0 0 0
SMALL
GASTEIGER

@<TRIPOS>ATOM
      1 C          11.1485   39.8484   10.1491 C.3     1  UNL1        0.0741
      2 C          12.5811   39.9531   10.6352 C.3     1  UNL1        0.0355
      3 C          12.9691   38.6065   11.2435 C.3     1  UNL1        0.0031
      4 C          14.3721   38.6722   11.8202 C.3     1  UNL1        0.0019
      5 C          15.4095   38.1467   10.8318 C.3     1  UNL1        0.0215
      6 C          15.1905   38.6119    9.3903 C.3     1  UNL1        0.0922
      7 C          13.3231   40.3131    9.3584 C.3     1  UNL1        0.0914
      8 C          12.5470   39.6458    8.2475 C.3     1  UNL1        0.0924
      9 N          11.1661   39.5280    8.7167 N.3     1  UNL1       -0.2662
     10 N          14.7591   40.0092    9.3290 N.pl3   1  UNL1       -0.2925
     11 C          15.6428   41.0153    8.7927 C.ar    1  UNL1        0.1452
     12 C          15.2104   41.9611    7.8331 C.ar    1  UNL1        0.0824
     13 C          16.1307   42.9074    7.3622 C.ar    1  UNL1        0.0191
     14 C          17.4446   42.9125    7.8234 C.ar    1  UNL1        0.0220
     15 C          17.8376   41.9575    8.7561 C.ar    1  UNL1        0.1004
     16 N          16.9424   41.0427    9.2102 N.ar    1  UNL1       -0.2279
     17 C          13.3690   42.5814    6.1518 C.2     1  UNL1        0.2267
     18 C          11.9436   42.4043    5.7725 C.3     1  UNL1        0.0949
     19 N          13.8697   41.9205    7.3207 N.am    1  UNL1       -0.2817
     20 O          14.1106   43.3110    5.4425 O.2     1  UNL1       -0.2748
     21 H          13.2230   41.3788    7.8283 H       1  UNL1        0.1549
     22 C          10.2881   40.4516    7.9812 C.3     1  UNL1        0.1183
     23 C           7.3067   40.3505    7.2227 C.3     1  UNL1        0.1534
     24 C           9.4490   38.8887    4.8095 C.ar    1  UNL1        0.0802
     25 C           9.6890   38.1828    3.5239 C.3     1  UNL1        0.0540
     26 C          10.4389   39.2768    5.6995 C.ar    1  UNL1        0.0321
     27 C           9.7100   39.8758    6.7120 C.ar    1  UNL1        0.0730
     28 N           8.3975   39.8272    6.4178 N.ar    1  UNL1       -0.2518
     29 N           8.2248   39.2268    5.2559 N.ar    1  UNL1       -0.1739
@<TRIPOS>BOND
     1    23    28    1
     2    24    26   ar
     3    25    24    1
     4    27    28   ar
     5    22    27    1
     6    22     9    1
     7     1     9    1
     8     2     1    1
     9     2     3    1
    10     3     4    1
    11     4     5    1
    12     5     6    1
    13     6    10    1
    14     7    10    1
    15     7     8    1
    16     7     2    1
    17     8     9    1
    18    11    16   ar
    19    12    19    1
    20    12    13   ar
    21    18    17    1
    22    14    15   ar
    23    28    29   ar
    24    10    11    1
    25    19    17   am
    26    24    29   ar
    27    26    27   ar
    28    11    12   ar
    29    17    20    2
    30    13    14   ar
    31    15    16   ar
    32    19    21    1
@<TRIPOS>MOLECULE
MolPort-047-139-225 MCULE-6161825793 MCULE-9725615455 PubChem-146070115 PubChem-146070116
 29 32 0 0 0
SMALL
GASTEIGER

@<TRIPOS>ATOM
      1 C           9.9705   41.6745   10.6517 C.3     1  UNL1        0.0741
      2 C          11.3454   41.1456   10.2915 C.3     1  UNL1        0.0355
      3 C          11.2596   39.6216   10.2293 C.3     1  UNL1        0.0031
      4 C          12.6280   39.0269    9.9480 C.3     1  UNL1        0.0019
      5 C          12.8207   38.7428    8.4609 C.3     1  UNL1        0.0215
      6 C          12.3037   39.8515    7.5412 C.3     1  UNL1        0.0922
      7 C          11.6059   41.8243    8.9566 C.3     1  UNL1        0.0914
      8 C          10.2456   41.9782    8.3182 C.3     1  UNL1        0.0924
      9 N           9.2772   42.0482    9.4130 N.3     1  UNL1       -0.2662
     10 N          12.5916   41.1823    8.0782 N.pl3   1  UNL1       -0.2925
     11 C          13.5550   42.0329    7.4232 C.ar    1  UNL1        0.1452
     12 C          14.9304   42.0052    7.7551 C.ar    1  UNL1        0.0824
     13 C          15.8027   42.8629    7.0713 C.ar    1  UNL1        0.0191
     14 C          15.3253   43.7291    6.0910 C.ar    1  UNL1        0.0220
     15 C          13.9641   43.7391    5.8022 C.ar    1  UNL1        0.1004
     16 N          13.1224   42.9058    6.4668 N.ar    1  UNL1       -0.2279
     17 C          16.7774   40.8891    9.1498 C.2     1  UNL1        0.2267
     18 C          17.0771   39.9775   10.2838 C.3     1  UNL1        0.0949
     19 N          15.4116   41.1488    8.8024 N.am    1  UNL1       -0.2817
     20 O          17.7276   41.4145    8.5122 O.2     1  UNL1       -0.2748
     21 H          14.7277   40.6892    9.3412 H       1  UNL1        0.1549
     22 C           8.7267   43.4074    9.5320 C.3     1  UNL1        0.1183
     23 C           6.4857   41.5074   10.4497 C.3     1  UNL1        0.1534
     24 C           5.3741   44.1092    8.3177 C.ar    1  UNL1        0.0802
     25 C           4.3126   44.8205    7.5589 C.3     1  UNL1        0.0540
     26 C           6.7097   44.4800    8.3528 C.ar    1  UNL1        0.0321
     27 C           7.2645   43.5154    9.1757 C.ar    1  UNL1        0.0730
     28 N           6.3099   42.6553    9.5762 N.ar    1  UNL1       -0.2518
     29 N           5.1487   43.0083    9.0591 N.ar    1  UNL1       -0.1739
@<TRIPOS>BOND
     1    23    28    1
     2    24    26   ar
     3    25    24    1
     4    27    28   ar
     5    22    27    1
     6    22     9    1
     7     1     9    1
     8     2     1    1
     9     2     3    1
    10     3     4    1
    11     4     5    1
    12     5     6    1
    13     6    10    1
    14     7    10    1
    15     7     8    1
    16     7     2    1
    17     8     9    1
    18    11    16   ar
    19    12    19    1
    20    12    13   ar
    21    18    17    1
    22    14    15   ar
    23    28    29   ar
    24    10    11    1
    25    19    17   am
    26    24    29   ar
    27    26    27   ar
    28    11    12   ar
    29    17    20    2
    30    13    14   ar
    31    15    16   ar
    32    19    21    1
@<TRIPOS>MOLECULE
MolPort-047-139-225 MCULE-6161825793 MCULE-9725615455 PubChem-146070115 PubChem-146070116
 29 32 0 0 0
SMALL
GASTEIGER

@<TRIPOS>ATOM
      1 C          10.9863   40.3364    9.7680 C.3     1  UNL1        0.0741
      2 C          12.4012   40.4211   10.3072 C.3     1  UNL1        0.0355
      3 C          12.7281   39.0874   10.9768 C.3     1  UNL1        0.0031
      4 C          14.1087   39.1373   11.6065 C.3     1  UNL1        0.0019
      5 C          15.1693   38.5501   10.6793 C.3     1  UNL1        0.0215
      6 C          15.0196   38.9691    9.2149 C.3     1  UNL1        0.0922
      7 C          13.2021   40.7160    9.0494 C.3     1  UNL1        0.0914
      8 C          12.4522   40.0299    7.9321 C.3     1  UNL1        0.0924
      9 N          11.0512   39.9648    8.3494 N.3     1  UNL1       -0.2662
     10 N          14.6294   40.3740    9.0881 N.pl3   1  UNL1       -0.2925
     11 C          15.5605   41.3371    8.5532 C.ar    1  UNL1        0.1452
     12 C          16.9166   41.3753    8.9558 C.ar    1  UNL1        0.0824
     13 C          17.7579   42.3416    8.3879 C.ar    1  UNL1        0.0191
     14 C          17.2684   43.2495    7.4524 C.ar    1  UNL1        0.0220
     15 C          15.9256   43.1912    7.0920 C.ar    1  UNL1        0.1004
     16 N          15.1140   42.2528    7.6443 N.ar    1  UNL1       -0.2279
     17 C          18.5086   39.5640    9.8430 C.2     1  UNL1        0.2267
     18 C          18.8747   38.7146   11.0056 C.3     1  UNL1        0.0949
     19 N          17.4060   40.4719    9.9590 N.am    1  UNL1       -0.2817
     20 O          19.1707   39.4690    8.7762 O.2     1  UNL1       -0.2748
     21 H          16.9316   40.4768   10.8217 H       1  UNL1        0.1549
     22 C          10.2283   40.8840    7.5479 C.3     1  UNL1        0.1183
     23 C           7.2267   40.4898    6.9915 C.3     1  UNL1        0.1534
     24 C           9.3334   39.2558    4.4246 C.ar    1  UNL1        0.0802
     25 C           9.5538   38.5813    3.1188 C.3     1  UNL1        0.0540
     26 C          10.3385   39.7373    5.2495 C.ar    1  UNL1        0.0321
     27 C           9.6247   40.2577    6.3149 C.ar    1  UNL1        0.0730
     28 N           8.3065   40.0800    6.1095 N.ar    1  UNL1       -0.2518
     29 N           8.1150   39.4691    4.9560 N.ar    1  UNL1       -0.1739
@<TRIPOS>BOND
     1    23    28    1
     2    24    26   ar
     3    25    24    1
     4    27    28   ar
     5    22    27    1
     6    22     9    1
     7     1     9    1
     8     2     1    1
     9     2     3    1
    10     3     4    1
    11     4     5    1
    12     5     6    1
    13     6    10    1
    14     7    10    1
    15     7     8    1
    16     7     2    1
    17     8     9    1
    18    11    16   ar
    19    12    19    1
    20    12    13   ar
    21    18    17    1
    22    14    15   ar
    23    28    29   ar
    24    10    11    1
    25    19    17   am
    26    24    29   ar
    27    26    27   ar
    28    11    12   ar
    29    17    20    2
    30    13    14   ar
    31    15    16   ar
    32    19    21    1
@<TRIPOS>MOLECULE
MolPort-047-139-225 MCULE-6161825793 MCULE-9725615455 PubChem-146070115 PubChem-146070116
 29 32 0 0 0
SMALL
GASTEIGER

@<TRIPOS>ATOM
      1 C          11.4778   39.6180   10.3811 C.3     1  UNL1        0.0741
      2 C          12.9175   39.8394   10.8032 C.3     1  UNL1        0.0355
      3 C          13.4235   38.5458   11.4391 C.3     1  UNL1        0.0031
      4 C          14.8400   38.7296   11.9541 C.3     1  UNL1        0.0019
      5 C          15.8723   38.2421   10.9412 C.3     1  UNL1        0.0215
      6 C          15.5643   38.6387    9.4955 C.3     1  UNL1        0.0922
      7 C          13.5812   40.2039    9.4852 C.3     1  UNL1        0.0914
      8 C          12.8113   39.4446    8.4305 C.3     1  UNL1        0.0924
      9 N          11.4617   39.2482    8.9607 N.3     1  UNL1       -0.2662
     10 N          15.0329   39.9995    9.4059 N.pl3   1  UNL1       -0.2925
     11 C          15.8213   41.0446    8.8001 C.ar    1  UNL1        0.1452
     12 C          15.2773   41.9421    7.8508 C.ar    1  UNL1        0.0824
     13 C          16.1096   42.9310    7.3091 C.ar    1  UNL1        0.0191
     14 C          17.4453   43.0244    7.6915 C.ar    1  UNL1        0.0220
     15 C          17.9490   42.1148    8.6164 C.ar    1  UNL1        0.1004
     16 N          17.1388   41.1585    9.1393 N.ar    1  UNL1       -0.2279
     17 C          13.3000   42.4374    6.2865 C.2     1  UNL1        0.2267
     18 C          11.8697   42.1638    5.9924 C.3     1  UNL1        0.0949
     19 N          13.9140   41.8106    7.4195 N.am    1  UNL1       -0.2817
     20 O          13.9461   43.2170    5.5380 O.2     1  UNL1       -0.2748
     21 H          13.3376   41.2253    7.9620 H       1  UNL1        0.1549
     22 C          10.4923   40.0815    8.2323 C.3     1  UNL1        0.1183
     23 C           7.5423   40.5106    7.4654 C.3     1  UNL1        0.1534
     24 C           8.3595   41.6614   10.7146 C.ar    1  UNL1        0.0802
     25 C           8.0055   42.3065   12.0058 C.3     1  UNL1        0.0540
     26 C           9.6178   41.1808   10.3854 C.ar    1  UNL1        0.0321
     27 C           9.4238   40.6925    9.1051 C.ar    1  UNL1        0.0730
     28 N           8.1449   40.8863    8.7331 N.ar    1  UNL1       -0.2518
     29 N           7.4831   41.4772    9.7095 N.ar    1  UNL1       -0.1739
@<TRIPOS>BOND
     1    23    28    1
     2    24    26   ar
     3    25    24    1
     4    27    28   ar
     5    22    27    1
     6    22     9    1
     7     1     9    1
     8     2     1    1
     9     2     3    1
    10     3     4    1
    11     4     5    1
    12     5     6    1
    13     6    10    1
    14     7    10    1
    15     7     8    1
    16     7     2    1
    17     8     9    1
    18    11    16   ar
    19    12    19    1
    20    12    13   ar
    21    18    17    1
    22    14    15   ar
    23    28    29   ar
    24    10    11    1
    25    19    17   am
    26    24    29   ar
    27    26    27   ar
    28    11    12   ar
    29    17    20    2
    30    13    14   ar
    31    15    16   ar
    32    19    21    1
@<TRIPOS>MOLECULE
MolPort-047-139-225 MCULE-6161825793 MCULE-9725615455 PubChem-146070115 PubChem-146070116
 29 32 0 0 0
SMALL
GASTEIGER

@<TRIPOS>ATOM
      1 C          12.5204   40.3813   10.4872 C.3     1  UNL1        0.0741
      2 C          11.0193   40.2403   10.6500 C.3     1  UNL1        0.0355
      3 C          10.5751   41.2019   11.7509 C.3     1  UNL1        0.0031
      4 C           9.0876   41.0508   12.0152 C.3     1  UNL1        0.0019
      5 C           8.2733   42.0863   11.2445 C.3     1  UNL1        0.0215
      6 C           8.7402   42.3007    9.8028 C.3     1  UNL1        0.0922
      7 C          10.5159   40.5881    9.2586 C.3     1  UNL1        0.0914
      8 C          11.5101   41.5874    8.7158 C.3     1  UNL1        0.0924
      9 N          12.7826   41.3142    9.3846 N.3     1  UNL1       -0.2662
     10 N           9.1230   41.0417    9.1619 N.pl3   1  UNL1       -0.2925
     11 C           8.3181   40.5006    8.0941 C.ar    1  UNL1        0.1452
     12 C           7.1497   41.1503    7.6302 C.ar    1  UNL1        0.0824
     13 C           6.4230   40.5597    6.5876 C.ar    1  UNL1        0.0191
     14 C           6.8376   39.3555    6.0246 C.ar    1  UNL1        0.0220
     15 C           7.9834   38.7380    6.5170 C.ar    1  UNL1        0.1004
     16 N           8.6850   39.3141    7.5271 N.ar    1  UNL1       -0.2279
     17 C           6.4301   43.6168    7.6033 C.2     1  UNL1        0.2267
     18 C           5.9487   44.7634    8.4160 C.3     1  UNL1        0.0949
     19 N           6.6957   42.3647    8.2476 N.am    1  UNL1       -0.2817
     20 O           6.5993   43.7660    6.3645 O.2     1  UNL1       -0.2748
     21 H           6.5510   42.3336    9.2209 H       1  UNL1        0.1549
     22 C          13.7473   40.7254    8.4427 C.3     1  UNL1        0.1183
     23 C          13.5757   42.7284    6.1118 C.3     1  UNL1        0.1534
     24 C          16.7036   42.7308    7.7749 C.ar    1  UNL1        0.0802
     25 C          18.0965   43.2186    7.9495 C.3     1  UNL1        0.0540
     26 C          16.0953   41.7657    8.5631 C.ar    1  UNL1        0.0321
     27 C          14.8348   41.6727    7.9991 C.ar    1  UNL1        0.0730
     28 N          14.7370   42.5236    6.9609 N.ar    1  UNL1       -0.2518
     29 N          15.8733   43.1777    6.8141 N.ar    1  UNL1       -0.1739
@<TRIPOS>BOND
     1    23    28    1
     2    24    26   ar
     3    25    24    1
     4    27    28   ar
     5    22    27    1
     6    22     9    1
     7     1     9    1
     8     2     1    1
     9     2     3    1
    10     3     4    1
    11     4     5    1
    12     5     6    1
    13     6    10    1
    14     7    10    1
    15     7     8    1
    16     7     2    1
    17     8     9    1
    18    11    16   ar
    19    12    19    1
    20    12    13   ar
    21    18    17    1
    22    14    15   ar
    23    28    29   ar
    24    10    11    1
    25    19    17   am
    26    24    29   ar
    27    26    27   ar
    28    11    12   ar
    29    17    20    2
    30    13    14   ar
    31    15    16   ar
    32    19    21    1
@<TRIPOS>MOLECULE
MolPort-047-139-225 MCULE-6161825793 MCULE-9725615455 PubChem-146070115 PubChem-146070116
 29 32 0 0 0
SMALL
GASTEIGER

@<TRIPOS>ATOM
      1 C          10.8902   40.5395    9.8634 C.3     1  UNL1        0.0741
      2 C          12.3277   40.4761   10.3422 C.3     1  UNL1        0.0355
      3 C          12.5865   39.0631   10.8620 C.3     1  UNL1        0.0031
      4 C          13.9911   38.9581   11.4290 C.3     1  UNL1        0.0019
      5 C          14.9704   38.3990   10.4006 C.3     1  UNL1        0.0215
      6 C          14.7927   38.9726    8.9929 C.3     1  UNL1        0.0922
      7 C          13.0970   40.8431    9.0836 C.3     1  UNL1        0.0914
      8 C          12.2573   40.3241    7.9404 C.3     1  UNL1        0.0924
      9 N          10.8728   40.3095    8.4137 N.3     1  UNL1       -0.2662
     10 N          14.4972   40.4058    9.0225 N.pl3   1  UNL1       -0.2925
     11 C          15.4717   41.3545    8.5420 C.ar    1  UNL1        0.1452
     12 C          16.8204   41.3285    8.9697 C.ar    1  UNL1        0.0824
     13 C          17.7058   42.2850    8.4547 C.ar    1  UNL1        0.0191
     14 C          17.2665   43.2451    7.5469 C.ar    1  UNL1        0.0220
     15 C          15.9295   43.2490    7.1608 C.ar    1  UNL1        0.1004
     16 N          15.0750   42.3198    7.6618 N.ar    1  UNL1       -0.2279
     17 C          18.3825   39.4868    9.8474 C.2     1  UNL1        0.2267
     18 C          18.6860   38.5708   10.9768 C.3     1  UNL1        0.0949
     19 N          17.2585   40.3704    9.9454 N.am    1  UNL1       -0.2817
     20 O          19.1151   39.4685    8.8235 O.2     1  UNL1       -0.2748
     21 H          16.7282   40.3143   10.7729 H       1  UNL1        0.1549
     22 C          10.0853   41.3571    7.7450 C.3     1  UNL1        0.1183
     23 C           9.5620   43.6660    9.7121 C.3     1  UNL1        0.1534
     24 C           6.7347   41.6128    9.1289 C.ar    1  UNL1        0.0802
     25 C           5.3154   41.2376    9.3600 C.3     1  UNL1        0.0540
     26 C           7.6043   40.9461    8.2792 C.ar    1  UNL1        0.0321
     27 C           8.7741   41.6718    8.4223 C.ar    1  UNL1        0.0730
     28 N           8.5816   42.6778    9.2953 N.ar    1  UNL1       -0.2518
     29 N           7.3377   42.6533    9.7340 N.ar    1  UNL1       -0.1739
@<TRIPOS>BOND
     1    23    28    1
     2    24    26   ar
     3    25    24    1
     4    27    28   ar
     5    22    27    1
     6    22     9    1
     7     1     9    1
     8     2     1    1
     9     2     3    1
    10     3     4    1
    11     4     5    1
    12     5     6    1
    13     6    10    1
    14     7    10    1
    15     7     8    1
    16     7     2    1
    17     8     9    1
    18    11    16   ar
    19    12    19    1
    20    12    13   ar
    21    18    17    1
    22    14    15   ar
    23    28    29   ar
    24    10    11    1
    25    19    17   am
    26    24    29   ar
    27    26    27   ar
    28    11    12   ar
    29    17    20    2
    30    13    14   ar
    31    15    16   ar
    32    19    21    1
@<TRIPOS>MOLECULE
MolPort-047-139-225 MCULE-6161825793 MCULE-9725615455 PubChem-146070115 PubChem-146070116
 29 32 0 0 0
SMALL
GASTEIGER

@<TRIPOS>ATOM
      1 C           7.2387   40.6459    7.8066 C.3     1  UNL1        0.0741
      2 C           8.4713   39.9196    7.3037 C.3     1  UNL1        0.0355
      3 C           8.1293   39.2977    5.9508 C.3     1  UNL1        0.0031
      4 C           9.3036   38.4885    5.4297 C.3     1  UNL1        0.0019
      5 C          10.1599   39.3020    4.4631 C.3     1  UNL1        0.0215
      6 C          10.4089   40.7440    4.9113 C.3     1  UNL1        0.0922
      7 C           9.4982   41.0390    7.2492 C.3     1  UNL1        0.0914
      8 C           8.7077   42.2868    6.9333 C.3     1  UNL1        0.0924
      9 N           7.3553   42.0639    7.4455 N.3     1  UNL1       -0.2662
     10 N          10.6429   40.8329    6.3534 N.pl3   1  UNL1       -0.2925
     11 C          11.9513   41.1780    6.8531 C.ar    1  UNL1        0.1452
     12 C          12.7020   40.2960    7.6661 C.ar    1  UNL1        0.0824
     13 C          13.9664   40.7059    8.1106 C.ar    1  UNL1        0.0191
     14 C          14.4704   41.9572    7.7656 C.ar    1  UNL1        0.0220
     15 C          13.6972   42.8037    6.9769 C.ar    1  UNL1        0.1004
     16 N          12.4728   42.4023    6.5478 N.ar    1  UNL1       -0.2279
     17 C          11.4371   38.7336    9.2664 C.2     1  UNL1        0.2267
     18 C          10.9368   37.3533    9.4933 C.3     1  UNL1        0.0949
     19 N          12.1580   39.0279    8.0633 N.am    1  UNL1       -0.2817
     20 O          11.2222   39.6189   10.1356 O.2     1  UNL1       -0.2748
     21 H          12.2954   38.2779    7.4405 H       1  UNL1        0.1549
     22 C           7.1014   42.9081    8.6234 C.3     1  UNL1        0.1183
     23 C           4.8760   44.7421    7.5468 C.3     1  UNL1        0.1534
     24 C           3.8091   42.5546   10.1210 C.ar    1  UNL1        0.0802
     25 C           2.7729   42.0179   11.0412 C.3     1  UNL1        0.0540
     26 C           5.1258   42.1230   10.0691 C.ar    1  UNL1        0.0321
     27 C           5.6616   42.9226    9.0746 C.ar    1  UNL1        0.0730
     28 N           4.7149   43.7524    8.5985 N.ar    1  UNL1       -0.2518
     29 N           3.5767   43.5364    9.2297 N.ar    1  UNL1       -0.1739
@<TRIPOS>BOND
     1    23    28    1
     2    24    26   ar
     3    25    24    1
     4    27    28   ar
     5    22    27    1
     6    22     9    1
     7     1     9    1
     8     2     1    1
     9     2     3    1
    10     3     4    1
    11     4     5    1
    12     5     6    1
    13     6    10    1
    14     7    10    1
    15     7     8    1
    16     7     2    1
    17     8     9    1
    18    11    16   ar
    19    12    19    1
    20    12    13   ar
    21    18    17    1
    22    14    15   ar
    23    28    29   ar
    24    10    11    1
    25    19    17   am
    26    24    29   ar
    27    26    27   ar
    28    11    12   ar
    29    17    20    2
    30    13    14   ar
    31    15    16   ar
    32    19    21    1
@<TRIPOS>MOLECULE
MolPort-047-139-225 MCULE-6161825793 MCULE-9725615455 PubChem-146070115 PubChem-146070116
 29 32 0 0 0
SMALL
GASTEIGER

@<TRIPOS>ATOM
      1 C          11.9399   40.2808    9.6394 C.3     1  UNL1        0.0741
      2 C          10.4920   40.5484   10.0024 C.3     1  UNL1        0.0355
      3 C          10.4334   40.8595   11.4969 C.3     1  UNL1        0.0031
      4 C           8.9947   41.0610   11.9382 C.3     1  UNL1        0.0019
      5 C           8.6158   42.5393   11.9563 C.3     1  UNL1        0.0215
      6 C           9.1264   43.3296   10.7491 C.3     1  UNL1        0.0922
      7 C          10.1490   41.7180    9.0940 C.3     1  UNL1        0.0914
      8 C          11.4396   42.4860    8.9325 C.3     1  UNL1        0.0924
      9 N          12.5242   41.5208    9.1145 N.3     1  UNL1       -0.2662
     10 N           9.0195   42.5589    9.5094 N.pl3   1  UNL1       -0.2925
     11 C           8.0704   42.9490    8.4957 C.ar    1  UNL1        0.1452
     12 C           8.1417   42.4578    7.1705 C.ar    1  UNL1        0.0824
     13 C           7.1804   42.8849    6.2443 C.ar    1  UNL1        0.0191
     14 C           6.1805   43.7789    6.6181 C.ar    1  UNL1        0.0220
     15 C           6.1510   44.2522    7.9264 C.ar    1  UNL1        0.1004
     16 N           7.0841   43.8353    8.8208 N.ar    1  UNL1       -0.2279
     17 C           9.1302   40.4988    5.8336 C.2     1  UNL1        0.2267
     18 C          10.3513   39.7044    5.5425 C.3     1  UNL1        0.0949
     19 N           9.2044   41.5771    6.7746 N.am    1  UNL1       -0.2817
     20 O           8.0519   40.2091    5.2517 O.2     1  UNL1       -0.2748
     21 H          10.0807   41.7310    7.1961 H       1  UNL1        0.1549
     22 C          13.2041   41.2580    7.8365 C.3     1  UNL1        0.1183
     23 C          15.7006   40.3321    9.3807 C.3     1  UNL1        0.1534
     24 C          16.2791   43.1047    7.2528 C.ar    1  UNL1        0.0802
     25 C          17.1592   44.1521    6.6724 C.3     1  UNL1        0.0540
     26 C          14.9368   42.9369    6.9486 C.ar    1  UNL1        0.0321
     27 C          14.5862   41.8551    7.7374 C.ar    1  UNL1        0.0730
     28 N          15.6551   41.4409    8.4426 N.ar    1  UNL1       -0.2518
     29 N          16.6974   42.1965    8.1542 N.ar    1  UNL1       -0.1739
@<TRIPOS>BOND
     1    23    28    1
     2    24    26   ar
     3    25    24    1
     4    27    28   ar
     5    22    27    1
     6    22     9    1
     7     1     9    1
     8     2     1    1
     9     2     3    1
    10     3     4    1
    11     4     5    1
    12     5     6    1
    13     6    10    1
    14     7    10    1
    15     7     8    1
    16     7     2    1
    17     8     9    1
    18    11    16   ar
    19    12    19    1
    20    12    13   ar
    21    18    17    1
    22    14    15   ar
    23    28    29   ar
    24    10    11    1
    25    19    17   am
    26    24    29   ar
    27    26    27   ar
    28    11    12   ar
    29    17    20    2
    30    13    14   ar
    31    15    16   ar
    32    19    21    1
@<TRIPOS>MOLECULE
MolPort-047-139-225 MCULE-6161825793 MCULE-9725615455 PubChem-146070115 PubChem-146070116
 29 32 0 0 0
SMALL
GASTEIGER

@<TRIPOS>ATOM
      1 C          12.2999   40.2766   10.6052 C.3     1  UNL1        0.0741
      2 C          10.7992   40.2489   10.8223 C.3     1  UNL1        0.0355
      3 C          10.4775   41.1804   11.9896 C.3     1  UNL1        0.0031
      4 C           8.9933   41.1359   12.3069 C.3     1  UNL1        0.0019
      5 C           8.2401   42.2753   11.6259 C.3     1  UNL1        0.0215
      6 C           8.6698   42.5313   10.1794 C.3     1  UNL1        0.0922
      7 C          10.2756   40.7134    9.4730 C.3     1  UNL1        0.0914
      8 C          11.3288   41.6576    8.9429 C.3     1  UNL1        0.0924
      9 N          12.5979   41.2452    9.5433 N.3     1  UNL1       -0.2662
     10 N           8.9226   41.2832    9.4579 N.pl3   1  UNL1       -0.2925
     11 C           8.0367   40.8695    8.3974 C.ar    1  UNL1        0.1452
     12 C           6.6373   41.0681    8.4667 C.ar    1  UNL1        0.0824
     13 C           5.8450   40.6383    7.3936 C.ar    1  UNL1        0.0191
     14 C           6.4215   40.0225    6.2856 C.ar    1  UNL1        0.0220
     15 C           7.7995   39.8306    6.2595 C.ar    1  UNL1        0.1004
     16 N           8.5636   40.2492    7.3013 N.ar    1  UNL1       -0.2279
     17 C           4.7611   41.3463   10.2001 C.2     1  UNL1        0.2267
     18 C           4.3209   42.0567   11.4284 C.3     1  UNL1        0.0949
     19 N           6.0402   41.6558    9.6329 N.am    1  UNL1       -0.2817
     20 O           4.0021   40.4882    9.6776 O.2     1  UNL1       -0.2748
     21 H           6.5678   42.3476   10.0936 H       1  UNL1        0.1549
     22 C          13.4749   40.6337    8.5326 C.3     1  UNL1        0.1183
     23 C          13.4107   42.6157    6.1785 C.3     1  UNL1        0.1534
     24 C          16.5304   42.4797    7.8516 C.ar    1  UNL1        0.0802
     25 C          17.9456   42.8986    8.0251 C.3     1  UNL1        0.0540
     26 C          15.8720   41.5556    8.6487 C.ar    1  UNL1        0.0321
     27 C          14.6100   41.5197    8.0817 C.ar    1  UNL1        0.0730
     28 N          14.5580   42.3624    7.0337 N.ar    1  UNL1       -0.2518
     29 N          15.7262   42.9566    6.8831 N.ar    1  UNL1       -0.1739
@<TRIPOS>BOND
     1    23    28    1
     2    24    26   ar
     3    25    24    1
     4    27    28   ar
     5    22    27    1
     6    22     9    1
     7     1     9    1
     8     2     1    1
     9     2     3    1
    10     3     4    1
    11     4     5    1
    12     5     6    1
    13     6    10    1
    14     7    10    1
    15     7     8    1
    16     7     2    1
    17     8     9    1
    18    11    16   ar
    19    12    19    1
    20    12    13   ar
    21    18    17    1
    22    14    15   ar
    23    28    29   ar
    24    10    11    1
    25    19    17   am
    26    24    29   ar
    27    26    27   ar
    28    11    12   ar
    29    17    20    2
    30    13    14   ar
    31    15    16   ar
    32    19    21    1
