@<TRIPOS>MOLECULE
MolPort-045-962-912 952985915 CSSS00160227687 MCULE-2269726237 PubChem-131937921 ZINC000952985915
 30 32 0 0 0
SMALL
GASTEIGER

@<TRIPOS>ATOM
      1 C           9.9852   41.3373    9.1560 C.ar    1  UNL1        0.0849
      2 C          11.0064   42.2681    9.3709 C.ar    1  UNL1        0.0190
      3 C          11.8480   42.6529    8.3266 C.ar    1  UNL1        0.0162
      4 C          11.6930   42.0937    7.0520 C.ar    1  UNL1        0.0537
      5 C          10.6848   41.1520    6.8360 C.ar    1  UNL1        0.0528
      6 C           9.8351   40.7504    7.8807 C.ar    1  UNL1        0.1533
      7 C           8.2455   41.8366   10.9461 C.2     1  UNL1        0.2564
      8 O           8.2997   43.0851   10.7750 O.2     1  UNL1       -0.2720
      9 N           9.1596   40.9689   10.2686 N.am    1  UNL1       -0.2795
     10 H           9.2271   40.0420   10.5934 H       1  UNL1        0.1550
     11 C           7.2609   41.2440   11.9016 C.3     1  UNL1        0.2273
     12 C           5.5734   41.1573   10.4822 C.3     1  UNL1        0.1748
     13 O           5.9786   41.7494   11.6774 O.3     1  UNL1       -0.3417
     14 C          13.8704   42.9637    6.0320 C.2     1  UNL1        0.2493
     15 O          14.2817   43.7711    5.1573 O.2     1  UNL1       -0.2698
     16 N          12.5158   42.4974    5.9501 N.am    1  UNL1       -0.2803
     17 H          12.1138   42.4504    5.0527 H       1  UNL1        0.1552
     18 C          14.8106   42.4570    7.0598 C.ar    1  UNL1        0.0529
     19 C          14.4665   41.2979    7.7736 C.ar    1  UNL1        0.0442
     20 C          15.3292   40.7762    8.7375 C.ar    1  UNL1        0.1725
     21 C          16.5636   41.3889    8.9786 C.ar    1  UNL1        0.1721
     22 C          17.2089   39.5061   10.4216 C.3     1  UNL1        0.2526
     23 C          15.7132   39.2663   10.6400 C.3     1  UNL1        0.2526
     24 C          16.9169   42.5463    8.2848 C.ar    1  UNL1        0.0359
     25 C          16.0518   43.0852    7.3257 C.ar    1  UNL1       -0.0143
     26 C          16.4702   44.3397    6.6356 C.3     1  UNL1        0.0313
     27 O          17.4296   40.8264    9.9204 O.3     1  UNL1       -0.4684
     28 O          14.9768   39.6415    9.4735 O.3     1  UNL1       -0.4684
     29 C           9.1983   38.4364    7.2644 C.3     1  UNL1        0.2525
     30 O           8.8708   39.7574    7.6736 O.3     1  UNL1       -0.4701
@<TRIPOS>BOND
     1    12    13    1
     2    11    13    1
     3    11     7    1
     4     7     9   am
     5     2     3   ar
     6     4    16    1
     7     4     5   ar
     8    14    18    1
     9    19    20   ar
    10    20    28    1
    11    21    27    1
    12    21    24   ar
    13    22    27    1
    14    22    23    1
    15    23    28    1
    16    25    18   ar
    17    26    25    1
    18     6    30    1
    19     6     1   ar
    20    29    30    1
    21     9     1    1
    22    16    14   am
    23     7     8    2
    24     1     2   ar
    25     3     4   ar
    26    14    15    2
    27    18    19   ar
    28    20    21   ar
    29    24    25   ar
    30     5     6   ar
    31     9    10    1
    32    16    17    1
@<TRIPOS>MOLECULE
MolPort-045-962-912 952985915 CSSS00160227687 MCULE-2269726237 PubChem-131937921 ZINC000952985915
 30 32 0 0 0
SMALL
GASTEIGER

@<TRIPOS>ATOM
      1 C          10.8020   40.2080    8.4800 C.ar    1  UNL1        0.0849
      2 C          10.6430   39.7571    9.7941 C.ar    1  UNL1        0.0190
      3 C          11.7497   39.5953   10.6284 C.ar    1  UNL1        0.0162
      4 C          13.0389   39.8628   10.1512 C.ar    1  UNL1        0.0537
      5 C          13.2046   40.2982    8.8348 C.ar    1  UNL1        0.0528
      6 C          12.0992   40.4584    7.9821 C.ar    1  UNL1        0.1533
      7 C           8.8881   41.5506    7.4726 C.2     1  UNL1        0.2564
      8 O           9.0635   42.5393    8.2361 O.2     1  UNL1       -0.2720
      9 N           9.6312   40.3428    7.6639 N.am    1  UNL1       -0.2795
     10 H           9.3118   39.5375    7.1963 H       1  UNL1        0.1550
     11 C           7.8619   41.6029    6.3874 C.3     1  UNL1        0.2273
     12 C           6.6579   39.7712    6.1317 C.3     1  UNL1        0.1748
     13 O           7.8180   40.3990    5.6810 O.3     1  UNL1       -0.3417
     14 C          14.8872   38.5295   11.3106 C.2     1  UNL1        0.2493
     15 O          15.4803   38.4474   12.4187 O.2     1  UNL1       -0.2698
     16 N          14.1912   39.7439   10.9951 N.am    1  UNL1       -0.2803
     17 H          14.5378   40.5736   11.3961 H       1  UNL1        0.1552
     18 C          14.9950   37.4153   10.3388 C.ar    1  UNL1        0.0529
     19 C          16.1195   37.3608    9.4998 C.ar    1  UNL1        0.0442
     20 C          16.2703   36.3208    8.5826 C.ar    1  UNL1        0.1725
     21 C          15.3135   35.3023    8.5142 C.ar    1  UNL1        0.1721
     22 C          16.7714   34.0444    6.9859 C.3     1  UNL1        0.2526
     23 C          17.3959   35.3887    6.6051 C.3     1  UNL1        0.2526
     24 C          14.1859   35.3462    9.3342 C.ar    1  UNL1        0.0359
     25 C          14.0188   36.3932   10.2478 C.ar    1  UNL1       -0.0143
     26 C          12.7800   36.4027   11.0787 C.3     1  UNL1        0.0313
     27 O          15.5047   34.2488    7.6160 O.3     1  UNL1       -0.4684
     28 O          17.3714   36.2797    7.7228 O.3     1  UNL1       -0.4684
     29 C          12.7985   42.0952    6.2581 C.3     1  UNL1        0.2525
     30 O          12.2785   40.8303    6.6448 O.3     1  UNL1       -0.4701
@<TRIPOS>BOND
     1    12    13    1
     2    11    13    1
     3    11     7    1
     4     7     9   am
     5     2     3   ar
     6     4    16    1
     7     4     5   ar
     8    14    18    1
     9    19    20   ar
    10    20    28    1
    11    21    27    1
    12    21    24   ar
    13    22    27    1
    14    22    23    1
    15    23    28    1
    16    25    18   ar
    17    26    25    1
    18     6    30    1
    19     6     1   ar
    20    29    30    1
    21     9     1    1
    22    16    14   am
    23     7     8    2
    24     1     2   ar
    25     3     4   ar
    26    14    15    2
    27    18    19   ar
    28    20    21   ar
    29    24    25   ar
    30     5     6   ar
    31     9    10    1
    32    16    17    1
@<TRIPOS>MOLECULE
MolPort-045-962-912 952985915 CSSS00160227687 MCULE-2269726237 PubChem-131937921 ZINC000952985915
 30 32 0 0 0
SMALL
GASTEIGER

@<TRIPOS>ATOM
      1 C          13.5781   41.5094    7.1575 C.ar    1  UNL1        0.0849
      2 C          12.6568   41.7886    6.1432 C.ar    1  UNL1        0.0190
      3 C          11.5820   40.9315    5.9043 C.ar    1  UNL1        0.0162
      4 C          11.4249   39.7666    6.6657 C.ar    1  UNL1        0.0537
      5 C          12.3510   39.4751    7.6693 C.ar    1  UNL1        0.0528
      6 C          13.4418   40.3261    7.9155 C.ar    1  UNL1        0.1533
      7 C          15.0339   43.4773    6.4586 C.2     1  UNL1        0.2564
      8 O          14.5699   43.5174    5.2863 O.2     1  UNL1       -0.2720
      9 N          14.6702   42.4181    7.3493 N.am    1  UNL1       -0.2795
     10 H          15.2152   42.3038    8.1611 H       1  UNL1        0.1550
     11 C          16.0150   44.5052    6.9217 C.3     1  UNL1        0.2273
     12 C          17.8280   43.9573    5.7890 C.3     1  UNL1        0.1748
     13 O          16.8311   44.9283    5.8704 O.3     1  UNL1       -0.3417
     14 C           9.0402   38.9710    7.1332 C.2     1  UNL1        0.2493
     15 O           8.3848   37.9106    7.3124 O.2     1  UNL1       -0.2698
     16 N          10.3101   38.8871    6.4706 N.am    1  UNL1       -0.2803
     17 H          10.4267   38.1568    5.8209 H       1  UNL1        0.1552
     18 C           8.4501   40.2717    7.5301 C.ar    1  UNL1        0.0529
     19 C           9.1972   41.1248    8.3580 C.ar    1  UNL1        0.0442
     20 C           8.6881   42.3653    8.7420 C.ar    1  UNL1        0.1725
     21 C           7.4370   42.7841    8.2765 C.ar    1  UNL1        0.1721
     22 C           7.8364   45.0148    9.2292 C.3     1  UNL1        0.2526
     23 C           8.7953   44.3354   10.2096 C.3     1  UNL1        0.2526
     24 C           6.6780   41.9449    7.4607 C.ar    1  UNL1        0.0359
     25 C           7.1743   40.6924    7.0816 C.ar    1  UNL1       -0.0143
     26 C           6.3067   39.8267    6.2314 C.3     1  UNL1        0.0313
     27 O           6.9636   44.0475    8.6412 O.3     1  UNL1       -0.4684
     28 O           9.4140   43.2040    9.5923 O.3     1  UNL1       -0.4684
     29 C          14.1360   40.0103   10.2731 C.3     1  UNL1        0.2525
     30 O          14.4026   39.9935    8.8772 O.3     1  UNL1       -0.4701
@<TRIPOS>BOND
     1    12    13    1
     2    11    13    1
     3    11     7    1
     4     7     9   am
     5     2     3   ar
     6     4    16    1
     7     4     5   ar
     8    14    18    1
     9    19    20   ar
    10    20    28    1
    11    21    27    1
    12    21    24   ar
    13    22    27    1
    14    22    23    1
    15    23    28    1
    16    25    18   ar
    17    26    25    1
    18     6    30    1
    19     6     1   ar
    20    29    30    1
    21     9     1    1
    22    16    14   am
    23     7     8    2
    24     1     2   ar
    25     3     4   ar
    26    14    15    2
    27    18    19   ar
    28    20    21   ar
    29    24    25   ar
    30     5     6   ar
    31     9    10    1
    32    16    17    1
@<TRIPOS>MOLECULE
MolPort-045-962-912 952985915 CSSS00160227687 MCULE-2269726237 PubChem-131937921 ZINC000952985915
 30 32 0 0 0
SMALL
GASTEIGER

@<TRIPOS>ATOM
      1 C          14.3541   42.1136    7.7460 C.ar    1  UNL1        0.0849
      2 C          13.1777   42.8444    7.5522 C.ar    1  UNL1        0.0190
      3 C          12.0205   42.5299    8.2655 C.ar    1  UNL1        0.0162
      4 C          12.0174   41.4615    9.1710 C.ar    1  UNL1        0.0537
      5 C          13.1851   40.7186    9.3566 C.ar    1  UNL1        0.0528
      6 C          14.3553   41.0203    8.6393 C.ar    1  UNL1        0.1533
      7 C          15.7303   43.7429    6.3560 C.2     1  UNL1        0.2564
      8 O          14.7825   44.5641    6.2200 O.2     1  UNL1       -0.2720
      9 N          15.5089   42.4724    6.9760 N.am    1  UNL1       -0.2795
     10 H          16.2076   41.7879    6.8646 H       1  UNL1        0.1550
     11 C          17.0903   44.0591    5.8232 C.3     1  UNL1        0.2273
     12 C          18.0001   44.0361    7.8337 C.3     1  UNL1        0.1748
     13 O          18.0829   43.4326    6.5798 O.3     1  UNL1       -0.3417
     14 C           9.5077   41.0687    9.4627 C.2     1  UNL1        0.2493
     15 O           8.5684   41.3240   10.2619 O.2     1  UNL1       -0.2698
     16 N          10.8565   41.1388    9.9470 N.am    1  UNL1       -0.2803
     17 H          10.9979   40.9471   10.9023 H       1  UNL1        0.1552
     18 C           9.1945   40.6247    8.0835 C.ar    1  UNL1        0.0529
     19 C          10.2343   40.1188    7.2871 C.ar    1  UNL1        0.0442
     20 C           9.9817   39.6737    5.9896 C.ar    1  UNL1        0.1725
     21 C           8.6785   39.6984    5.4814 C.ar    1  UNL1        0.1721
     22 C           9.4306   38.4378    3.5095 C.3     1  UNL1        0.2526
     23 C          10.8256   39.0069    3.7783 C.3     1  UNL1        0.2526
     24 C           7.6356   40.2063    6.2561 C.ar    1  UNL1        0.0359
     25 C           7.8816   40.6683    7.5540 C.ar    1  UNL1       -0.0143
     26 C           6.7331   41.2262    8.3252 C.3     1  UNL1        0.0313
     27 O           8.4414   39.2104    4.1934 O.3     1  UNL1       -0.4684
     28 O          11.0190   39.1997    5.1816 O.3     1  UNL1       -0.4684
     29 C          16.5558   40.5520    9.6779 C.3     1  UNL1        0.2525
     30 O          15.5017   40.2300    8.7807 O.3     1  UNL1       -0.4701
@<TRIPOS>BOND
     1    12    13    1
     2    11    13    1
     3    11     7    1
     4     7     9   am
     5     2     3   ar
     6     4    16    1
     7     4     5   ar
     8    14    18    1
     9    19    20   ar
    10    20    28    1
    11    21    27    1
    12    21    24   ar
    13    22    27    1
    14    22    23    1
    15    23    28    1
    16    25    18   ar
    17    26    25    1
    18     6    30    1
    19     6     1   ar
    20    29    30    1
    21     9     1    1
    22    16    14   am
    23     7     8    2
    24     1     2   ar
    25     3     4   ar
    26    14    15    2
    27    18    19   ar
    28    20    21   ar
    29    24    25   ar
    30     5     6   ar
    31     9    10    1
    32    16    17    1
@<TRIPOS>MOLECULE
MolPort-045-962-912 952985915 CSSS00160227687 MCULE-2269726237 PubChem-131937921 ZINC000952985915
 30 32 0 0 0
SMALL
GASTEIGER

@<TRIPOS>ATOM
      1 C          13.8443   42.0528    7.0164 C.ar    1  UNL1        0.0849
      2 C          12.8138   42.1395    6.0750 C.ar    1  UNL1        0.0190
      3 C          11.8231   41.1589    6.0140 C.ar    1  UNL1        0.0162
      4 C          11.8611   40.0616    6.8833 C.ar    1  UNL1        0.0537
      5 C          12.8967   39.9621    7.8147 C.ar    1  UNL1        0.0528
      6 C          13.9046   40.9390    7.8819 C.ar    1  UNL1        0.1533
      7 C          15.1355   43.9616    5.9348 C.2     1  UNL1        0.2564
      8 O          14.7062   43.7116    4.7753 O.2     1  UNL1       -0.2720
      9 N          14.8425   43.0817    7.0245 N.am    1  UNL1       -0.2795
     10 H          15.3702   43.1921    7.8482 H       1  UNL1        0.1550
     11 C          16.0038   45.1526    6.1817 C.3     1  UNL1        0.2273
     12 C          17.8520   43.9880    6.4944 C.3     1  UNL1        0.1748
     13 O          17.2856   44.9540    5.6643 O.3     1  UNL1       -0.3417
     14 C           9.6552   39.0471    7.6852 C.2     1  UNL1        0.2493
     15 O           9.1497   37.9358    7.9944 O.2     1  UNL1       -0.2698
     16 N          10.8370   39.0590    6.8716 N.am    1  UNL1       -0.2803
     17 H          10.9556   38.3077    6.2465 H       1  UNL1        0.1552
     18 C           8.9749   40.2992    8.0936 C.ar    1  UNL1        0.0529
     19 C           8.0264   40.8636    7.2257 C.ar    1  UNL1        0.0442
     20 C           7.3498   42.0315    7.5771 C.ar    1  UNL1        0.1725
     21 C           7.5890   42.6342    8.8169 C.ar    1  UNL1        0.1721
     22 C           5.7163   44.1767    8.4212 C.3     1  UNL1        0.2526
     23 C           5.9443   43.9414    6.9262 C.3     1  UNL1        0.2526
     24 C           8.5347   42.0915    9.6870 C.ar    1  UNL1        0.0359
     25 C           9.2289   40.9277    9.3372 C.ar    1  UNL1       -0.0143
     26 C          10.2481   40.4091   10.2949 C.3     1  UNL1        0.0313
     27 O           6.8708   43.7813    9.1654 O.3     1  UNL1       -0.4684
     28 O           6.4288   42.6151    6.7027 O.3     1  UNL1       -0.4684
     29 C          15.1031   39.6949    9.6584 C.3     1  UNL1        0.2525
     30 O          14.9756   40.7983    8.7719 O.3     1  UNL1       -0.4701
@<TRIPOS>BOND
     1    12    13    1
     2    11    13    1
     3    11     7    1
     4     7     9   am
     5     2     3   ar
     6     4    16    1
     7     4     5   ar
     8    14    18    1
     9    19    20   ar
    10    20    28    1
    11    21    27    1
    12    21    24   ar
    13    22    27    1
    14    22    23    1
    15    23    28    1
    16    25    18   ar
    17    26    25    1
    18     6    30    1
    19     6     1   ar
    20    29    30    1
    21     9     1    1
    22    16    14   am
    23     7     8    2
    24     1     2   ar
    25     3     4   ar
    26    14    15    2
    27    18    19   ar
    28    20    21   ar
    29    24    25   ar
    30     5     6   ar
    31     9    10    1
    32    16    17    1
@<TRIPOS>MOLECULE
MolPort-045-962-912 952985915 CSSS00160227687 MCULE-2269726237 PubChem-131937921 ZINC000952985915
 30 32 0 0 0
SMALL
GASTEIGER

@<TRIPOS>ATOM
      1 C          14.3959   41.9662    7.4987 C.ar    1  UNL1        0.0849
      2 C          13.0071   41.8822    7.3580 C.ar    1  UNL1        0.0190
      3 C          12.2673   40.9889    8.1337 C.ar    1  UNL1        0.0162
      4 C          12.9114   40.1480    9.0498 C.ar    1  UNL1        0.0537
      5 C          14.2997   40.2167    9.1829 C.ar    1  UNL1        0.0528
      6 C          15.0573   41.1068    8.4028 C.ar    1  UNL1        0.1533
      7 C          16.1265   43.7920    7.1093 C.2     1  UNL1        0.2564
      8 O          16.2883   44.0228    8.3389 O.2     1  UNL1       -0.2720
      9 N          15.1061   42.8921    6.6661 N.am    1  UNL1       -0.2795
     10 H          14.8724   42.9104    5.7099 H       1  UNL1        0.1550
     11 C          16.9617   44.4957    6.0891 C.3     1  UNL1        0.2273
     12 C          14.9977   45.3909    5.6296 C.3     1  UNL1        0.1748
     13 O          16.3585   45.6882    5.6839 O.3     1  UNL1       -0.3417
     14 C          12.4176   37.8419   10.0380 C.2     1  UNL1        0.2493
     15 O          11.4467   37.0922   10.3234 O.2     1  UNL1       -0.2698
     16 N          12.1756   39.2483    9.8885 N.am    1  UNL1       -0.2803
     17 H          11.4344   39.6312   10.4112 H       1  UNL1        0.1552
     18 C          13.7823   37.2700    9.9498 C.ar    1  UNL1        0.0529
     19 C          14.0871   36.4189    8.8754 C.ar    1  UNL1        0.0442
     20 C          15.3635   35.8723    8.7436 C.ar    1  UNL1        0.1725
     21 C          16.3632   36.1951    9.6676 C.ar    1  UNL1        0.1721
     22 C          18.0239   35.0528    8.2604 C.3     1  UNL1        0.2526
     23 C          16.8635   34.2235    7.7052 C.3     1  UNL1        0.2526
     24 C          16.0746   37.0318   10.7459 C.ar    1  UNL1        0.0359
     25 C          14.7929   37.5739   10.8944 C.ar    1  UNL1       -0.0143
     26 C          14.5350   38.4392   12.0818 C.3     1  UNL1        0.0313
     27 O          17.6458   35.6680    9.4940 O.3     1  UNL1       -0.4684
     28 O          15.6625   34.9988    7.6943 O.3     1  UNL1       -0.4684
     29 C          17.1583   40.6765    9.6440 C.3     1  UNL1        0.2525
     30 O          16.4538   41.1229    8.4932 O.3     1  UNL1       -0.4701
@<TRIPOS>BOND
     1    12    13    1
     2    11    13    1
     3    11     7    1
     4     7     9   am
     5     2     3   ar
     6     4    16    1
     7     4     5   ar
     8    14    18    1
     9    19    20   ar
    10    20    28    1
    11    21    27    1
    12    21    24   ar
    13    22    27    1
    14    22    23    1
    15    23    28    1
    16    25    18   ar
    17    26    25    1
    18     6    30    1
    19     6     1   ar
    20    29    30    1
    21     9     1    1
    22    16    14   am
    23     7     8    2
    24     1     2   ar
    25     3     4   ar
    26    14    15    2
    27    18    19   ar
    28    20    21   ar
    29    24    25   ar
    30     5     6   ar
    31     9    10    1
    32    16    17    1
@<TRIPOS>MOLECULE
MolPort-045-962-912 952985915 CSSS00160227687 MCULE-2269726237 PubChem-131937921 ZINC000952985915
 30 32 0 0 0
SMALL
GASTEIGER

@<TRIPOS>ATOM
      1 C          10.8658   40.0984    8.1956 C.ar    1  UNL1        0.0849
      2 C          12.1128   39.6807    7.7203 C.ar    1  UNL1        0.0190
      3 C          13.2060   39.5858    8.5822 C.ar    1  UNL1        0.0162
      4 C          13.0721   39.9295    9.9332 C.ar    1  UNL1        0.0537
      5 C          11.8328   40.3622   10.4096 C.ar    1  UNL1        0.0528
      6 C          10.7257   40.4691    9.5507 C.ar    1  UNL1        0.1533
      7 C           8.8140   39.1663    7.0117 C.2     1  UNL1        0.2564
      8 O           9.0106   37.9863    7.4120 O.2     1  UNL1       -0.2720
      9 N           9.7814   40.1903    7.2624 N.am    1  UNL1       -0.2795
     10 H           9.6953   41.0275    6.7516 H       1  UNL1        0.1550
     11 C           7.5921   39.5053    6.2207 C.3     1  UNL1        0.2273
     12 C           6.9279   41.6091    6.1685 C.3     1  UNL1        0.1748
     13 O           7.7643   40.7014    5.5208 O.3     1  UNL1       -0.3417
     14 C          14.8054   38.5824   11.2445 C.2     1  UNL1        0.2493
     15 O          15.3257   38.5178   12.3896 O.2     1  UNL1       -0.2698
     16 N          14.1657   39.8051   10.8512 N.am    1  UNL1       -0.2803
     17 H          14.5104   40.6368   11.2495 H       1  UNL1        0.1552
     18 C          14.9414   37.4369   10.3134 C.ar    1  UNL1        0.0529
     19 C          16.0943   37.3507    9.5167 C.ar    1  UNL1        0.0442
     20 C          16.2717   36.2809    8.6394 C.ar    1  UNL1        0.1725
     21 C          15.3127   35.2647    8.5702 C.ar    1  UNL1        0.1721
     22 C          16.8166   33.9520    7.1354 C.3     1  UNL1        0.2526
     23 C          17.4611   35.2808    6.7337 C.3     1  UNL1        0.2526
     24 C          14.1573   35.3397    9.3481 C.ar    1  UNL1        0.0359
     25 C          13.9637   36.4164   10.2210 C.ar    1  UNL1       -0.0143
     26 C          12.6966   36.4578   11.0071 C.3     1  UNL1        0.0313
     27 O          15.5297   34.1819    7.7136 O.3     1  UNL1       -0.4684
     28 O          17.4020   36.2075    7.8206 O.3     1  UNL1       -0.4684
     29 C           9.2969   41.3536   11.3719 C.3     1  UNL1        0.2525
     30 O           9.5049   40.9672   10.0201 O.3     1  UNL1       -0.4701
@<TRIPOS>BOND
     1    12    13    1
     2    11    13    1
     3    11     7    1
     4     7     9   am
     5     2     3   ar
     6     4    16    1
     7     4     5   ar
     8    14    18    1
     9    19    20   ar
    10    20    28    1
    11    21    27    1
    12    21    24   ar
    13    22    27    1
    14    22    23    1
    15    23    28    1
    16    25    18   ar
    17    26    25    1
    18     6    30    1
    19     6     1   ar
    20    29    30    1
    21     9     1    1
    22    16    14   am
    23     7     8    2
    24     1     2   ar
    25     3     4   ar
    26    14    15    2
    27    18    19   ar
    28    20    21   ar
    29    24    25   ar
    30     5     6   ar
    31     9    10    1
    32    16    17    1
@<TRIPOS>MOLECULE
MolPort-045-962-912 952985915 CSSS00160227687 MCULE-2269726237 PubChem-131937921 ZINC000952985915
 30 32 0 0 0
SMALL
GASTEIGER

@<TRIPOS>ATOM
      1 C           8.6202   42.5458    9.1327 C.ar    1  UNL1        0.0849
      2 C           9.8551   42.9395    9.6576 C.ar    1  UNL1        0.0190
      3 C          10.8958   42.0197    9.7913 C.ar    1  UNL1        0.0162
      4 C          10.7083   40.6823    9.4205 C.ar    1  UNL1        0.0537
      5 C           9.4720   40.2805    8.9105 C.ar    1  UNL1        0.0528
      6 C           8.4135   41.1951    8.7773 C.ar    1  UNL1        0.1533
      7 C           6.9301   43.9247    7.8201 C.2     1  UNL1        0.2564
      8 O           7.4182   43.6166    6.6985 O.2     1  UNL1       -0.2720
      9 N           7.5829   43.5300    9.0308 N.am    1  UNL1       -0.2795
     10 H           7.2958   43.9711    9.8629 H       1  UNL1        0.1550
     11 C           5.6900   44.7544    7.9058 C.3     1  UNL1        0.2273
     12 C           4.3387   43.2265    8.7481 C.3     1  UNL1        0.1748
     13 O           4.9548   44.4398    9.0506 O.3     1  UNL1       -0.3417
     14 C          12.8597   39.5798    8.5873 C.2     1  UNL1        0.2493
     15 O          13.3767   38.4408    8.4405 O.2     1  UNL1       -0.2698
     16 N          11.7695   39.7230    9.5091 N.am    1  UNL1       -0.2803
     17 H          11.7484   39.1041   10.2744 H       1  UNL1        0.1552
     18 C          13.4403   40.7439    7.8765 C.ar    1  UNL1        0.0529
     19 C          14.6641   41.2649    8.3262 C.ar    1  UNL1        0.0442
     20 C          15.2553   42.3485    7.6767 C.ar    1  UNL1        0.1725
     21 C          14.6460   42.9063    6.5475 C.ar    1  UNL1        0.1721
     22 C          16.6390   44.2938    6.1656 C.3     1  UNL1        0.2526
     23 C          16.9223   44.1561    7.6633 C.3     1  UNL1        0.2526
     24 C          13.4255   42.4065    6.0931 C.ar    1  UNL1        0.0359
     25 C          12.8177   41.3286    6.7467 C.ar    1  UNL1       -0.0143
     26 C          11.4998   40.8548    6.2331 C.3     1  UNL1        0.0313
     27 O          15.2757   43.9656    5.8883 O.3     1  UNL1       -0.4684
     28 O          16.4569   42.8913    8.1403 O.3     1  UNL1       -0.4684
     29 C           6.9387   40.2487    7.0254 C.3     1  UNL1        0.2525
     30 O           7.1573   40.7712    8.3288 O.3     1  UNL1       -0.4701
@<TRIPOS>BOND
     1    12    13    1
     2    11    13    1
     3    11     7    1
     4     7     9   am
     5     2     3   ar
     6     4    16    1
     7     4     5   ar
     8    14    18    1
     9    19    20   ar
    10    20    28    1
    11    21    27    1
    12    21    24   ar
    13    22    27    1
    14    22    23    1
    15    23    28    1
    16    25    18   ar
    17    26    25    1
    18     6    30    1
    19     6     1   ar
    20    29    30    1
    21     9     1    1
    22    16    14   am
    23     7     8    2
    24     1     2   ar
    25     3     4   ar
    26    14    15    2
    27    18    19   ar
    28    20    21   ar
    29    24    25   ar
    30     5     6   ar
    31     9    10    1
    32    16    17    1
@<TRIPOS>MOLECULE
MolPort-045-962-912 952985915 CSSS00160227687 MCULE-2269726237 PubChem-131937921 ZINC000952985915
 30 32 0 0 0
SMALL
GASTEIGER

@<TRIPOS>ATOM
      1 C          12.7000   41.9419    8.9930 C.ar    1  UNL1        0.0849
      2 C          11.7595   42.9645    9.1520 C.ar    1  UNL1        0.0190
      3 C          10.7399   42.8511   10.0977 C.ar    1  UNL1        0.0162
      4 C          10.6333   41.6988   10.8865 C.ar    1  UNL1        0.0537
      5 C          11.5606   40.6679   10.7207 C.ar    1  UNL1        0.0528
      6 C          12.5879   40.7665    9.7670 C.ar    1  UNL1        0.1533
      7 C          13.5085   42.6066    6.6724 C.2     1  UNL1        0.2564
      8 O          12.3440   42.6894    6.1945 O.2     1  UNL1       -0.2720
      9 N          13.7176   42.1066    7.9968 N.am    1  UNL1       -0.2795
     10 H          14.6366   41.8547    8.2443 H       1  UNL1        0.1550
     11 C          14.6962   42.9780    5.8449 C.3     1  UNL1        0.2273
     12 C          14.9768   45.1631    5.7163 C.3     1  UNL1        0.1748
     13 O          14.4180   44.0821    5.0364 O.3     1  UNL1       -0.3417
     14 C           8.2105   41.7488   11.7026 C.2     1  UNL1        0.2493
     15 O           7.5189   42.1486   12.6762 O.2     1  UNL1       -0.2698
     16 N           9.6213   41.5693   11.8931 N.am    1  UNL1       -0.2803
     17 H           9.9225   41.3352   12.8007 H       1  UNL1        0.1552
     18 C           7.5432   41.3969   10.4266 C.ar    1  UNL1        0.0529
     19 C           8.3358   40.9790    9.3456 C.ar    1  UNL1        0.0442
     20 C           7.7487   40.6217    8.1319 C.ar    1  UNL1        0.1725
     21 C           6.3568   40.6466    7.9924 C.ar    1  UNL1        0.1721
     22 C           6.5635   39.5530    5.8005 C.3     1  UNL1        0.2526
     23 C           7.9752   40.1401    5.7312 C.3     1  UNL1        0.2526
     24 C           5.5553   41.0680    9.0535 C.ar    1  UNL1        0.0359
     25 C           6.1362   41.4419   10.2707 C.ar    1  UNL1       -0.0143
     26 C           5.2316   41.9104   11.3603 C.3     1  UNL1        0.0313
     27 O           5.7875   40.2463    6.7804 O.3     1  UNL1       -0.4684
     28 O           8.5354   40.2365    7.0429 O.3     1  UNL1       -0.4684
     29 C          14.7400   39.6160   10.1973 C.3     1  UNL1        0.2525
     30 O          13.4727   39.7020    9.5598 O.3     1  UNL1       -0.4701
@<TRIPOS>BOND
     1    12    13    1
     2    11    13    1
     3    11     7    1
     4     7     9   am
     5     2     3   ar
     6     4    16    1
     7     4     5   ar
     8    14    18    1
     9    19    20   ar
    10    20    28    1
    11    21    27    1
    12    21    24   ar
    13    22    27    1
    14    22    23    1
    15    23    28    1
    16    25    18   ar
    17    26    25    1
    18     6    30    1
    19     6     1   ar
    20    29    30    1
    21     9     1    1
    22    16    14   am
    23     7     8    2
    24     1     2   ar
    25     3     4   ar
    26    14    15    2
    27    18    19   ar
    28    20    21   ar
    29    24    25   ar
    30     5     6   ar
    31     9    10    1
    32    16    17    1
@<TRIPOS>MOLECULE
MolPort-045-962-912 952985915 CSSS00160227687 MCULE-2269726237 PubChem-131937921 ZINC000952985915
 30 32 0 0 0
SMALL
GASTEIGER

@<TRIPOS>ATOM
      1 C          11.1676   39.1441    7.8329 C.ar    1  UNL1        0.0849
      2 C          11.0189   38.3897    9.0008 C.ar    1  UNL1        0.0190
      3 C          11.8927   38.5634   10.0748 C.ar    1  UNL1        0.0162
      4 C          12.9453   39.4830    9.9871 C.ar    1  UNL1        0.0537
      5 C          13.1077   40.2276    8.8170 C.ar    1  UNL1        0.0528
      6 C          12.2391   40.0572    7.7256 C.ar    1  UNL1        0.1533
      7 C           9.0830   39.6957    6.4799 C.2     1  UNL1        0.2564
      8 O           8.6294   40.4979    7.3413 O.2     1  UNL1       -0.2720
      9 N          10.2492   38.9140    6.7565 N.am    1  UNL1       -0.2795
     10 H          10.4364   38.1552    6.1579 H       1  UNL1        0.1550
     11 C           8.3797   39.5065    5.1749 C.3     1  UNL1        0.2273
     12 C           9.3504   38.7908    3.3268 C.3     1  UNL1        0.1748
     13 O           9.1770   39.9309    4.1099 O.3     1  UNL1       -0.3417
     14 C          14.8272   38.7989   11.5773 C.2     1  UNL1        0.2493
     15 O          15.1370   38.8464   12.7972 O.2     1  UNL1       -0.2698
     16 N          13.8351   39.7122   11.0871 N.am    1  UNL1       -0.2803
     17 H          13.7584   40.5779   11.5498 H       1  UNL1        0.1552
     18 C          15.5488   37.8704   10.6748 C.ar    1  UNL1        0.0529
     19 C          14.9032   36.6929   10.2649 C.ar    1  UNL1        0.0442
     20 C          15.5381   35.7993    9.4024 C.ar    1  UNL1        0.1725
     21 C          16.8163   36.0870    8.9118 C.ar    1  UNL1        0.1721
     22 C          16.6542   34.1686    7.3831 C.3     1  UNL1        0.2526
     23 C          15.6497   33.5701    8.3705 C.3     1  UNL1        0.2526
     24 C          17.4754   37.2479    9.3163 C.ar    1  UNL1        0.0359
     25 C          16.8521   38.1437   10.1925 C.ar    1  UNL1       -0.0143
     26 C          17.6160   39.3543   10.6123 C.3     1  UNL1        0.0313
     27 O          17.4176   35.1973    8.0173 O.3     1  UNL1       -0.4684
     28 O          14.9125   34.6103    9.0175 O.3     1  UNL1       -0.4684
     29 C          12.3126   42.1689    6.4312 C.3     1  UNL1        0.2525
     30 O          12.4481   40.7578    6.5321 O.3     1  UNL1       -0.4701
@<TRIPOS>BOND
     1    12    13    1
     2    11    13    1
     3    11     7    1
     4     7     9   am
     5     2     3   ar
     6     4    16    1
     7     4     5   ar
     8    14    18    1
     9    19    20   ar
    10    20    28    1
    11    21    27    1
    12    21    24   ar
    13    22    27    1
    14    22    23    1
    15    23    28    1
    16    25    18   ar
    17    26    25    1
    18     6    30    1
    19     6     1   ar
    20    29    30    1
    21     9     1    1
    22    16    14   am
    23     7     8    2
    24     1     2   ar
    25     3     4   ar
    26    14    15    2
    27    18    19   ar
    28    20    21   ar
    29    24    25   ar
    30     5     6   ar
    31     9    10    1
    32    16    17    1
