@<TRIPOS>MOLECULE
MolPort-005-289-825 5952430 CSSS03437130174 MCULE-4036785831 PubChem-17028188 ZINC000005952430
 27 29 0 0 0
SMALL
GASTEIGER

@<TRIPOS>ATOM
      1 C           9.3098   42.5992    9.2888 C.ar    1  UNL1        0.0436
      2 C           9.5560   41.8007    8.1596 C.ar    1  UNL1        0.0865
      3 C          11.6366   42.5716    8.5512 C.ar    1  UNL1        0.1655
      4 N          10.8604   41.7951    7.7645 N.ar    1  UNL1       -0.2242
      5 S          10.7587   43.3056    9.7759 S.2     1  UNL1       -0.0544
      6 C           8.5406   41.0124    7.4192 C.ar    1  UNL1        0.0179
      7 C           7.4444   41.6226    6.7902 C.ar    1  UNL1        0.0015
      8 C           6.5040   40.8575    6.0948 C.ar    1  UNL1        0.0000
      9 C           6.6515   39.4708    6.0185 C.ar    1  UNL1        0.0000
     10 C           7.7396   38.8507    6.6369 C.ar    1  UNL1        0.0000
     11 C           8.6787   39.6180    7.3320 C.ar    1  UNL1        0.0015
     12 C          13.7114   42.7672    7.0969 C.2     1  UNL1        0.2509
     13 N          13.0436   42.7509    8.3656 N.am    1  UNL1       -0.2606
     14 O          13.0564   42.6163    6.0293 O.2     1  UNL1       -0.2698
     15 H          13.5961   42.8726    9.1713 H       1  UNL1        0.1571
     16 C          15.1710   42.9609    7.0397 C.ar    1  UNL1        0.0537
     17 C          16.0109   42.2886    7.9397 C.ar    1  UNL1        0.0045
     18 C          17.3959   42.4719    7.8863 C.ar    1  UNL1        0.0001
     19 C          17.9511   43.3287    6.9323 C.ar    1  UNL1        0.0000
     20 C          17.1220   44.0025    6.0316 C.ar    1  UNL1        0.0001
     21 C          15.7370   43.8194    6.0850 C.ar    1  UNL1        0.0045
     22 C           8.0055   42.8205    9.9838 C.3     1  UNL1        0.1073
     23 N           7.5671   41.5890   10.6298 N.3     1  UNL1       -0.2685
     24 C           5.1536   41.6627   11.3119 C.3     1  UNL1        0.0188
     25 C           6.1815   41.2859   10.2441 C.3     1  UNL1        0.0724
     26 C           7.6560   41.7782   12.0723 C.3     1  UNL1        0.0724
     27 C           8.8868   41.0734   12.6086 C.3     1  UNL1        0.0188
@<TRIPOS>BOND
     1    24    25    1
     2    25    23    1
     3    26    23    1
     4    26    27    1
     5    22    23    1
     6    22     1    1
     7     1     5   ar
     8     2     4   ar
     9     2     6    1
    10     3    13    1
    11     3     5   ar
    12    12    16    1
    13    17    18   ar
    14    19    20   ar
    15    21    16   ar
    16     7     8   ar
    17     9    10   ar
    18    11     6   ar
    19    13    12   am
    20     1     2   ar
    21     3     4   ar
    22    12    14    2
    23    16    17   ar
    24    18    19   ar
    25    20    21   ar
    26     6     7   ar
    27     8     9   ar
    28    10    11   ar
    29    13    15    1
@<TRIPOS>MOLECULE
MolPort-005-289-825 5952430 CSSS03437130174 MCULE-4036785831 PubChem-17028188 ZINC000005952430
 27 29 0 0 0
SMALL
GASTEIGER

@<TRIPOS>ATOM
      1 C           9.4091   41.5780    6.9132 C.ar    1  UNL1        0.0436
      2 C           9.5553   41.6745    8.3070 C.ar    1  UNL1        0.0865
      3 C          11.7105   41.8604    7.6766 C.ar    1  UNL1        0.1655
      4 N          10.8462   41.8349    8.7142 N.ar    1  UNL1       -0.2242
      5 S          10.9317   41.6881    6.2025 S.2     1  UNL1       -0.0544
      6 C           8.4538   41.6158    9.2988 C.ar    1  UNL1        0.0179
      7 C           8.6968   41.6809   10.6795 C.ar    1  UNL1        0.0015
      8 C           7.6405   41.6282   11.5932 C.ar    1  UNL1        0.0000
      9 C           6.3264   41.5121   11.1349 C.ar    1  UNL1        0.0000
     10 C           6.0698   41.4498    9.7633 C.ar    1  UNL1        0.0000
     11 C           7.1279   41.5025    8.8514 C.ar    1  UNL1        0.0015
     12 C          13.9197   42.9837    7.1147 C.2     1  UNL1        0.2509
     13 N          13.1259   42.0154    7.8135 N.am    1  UNL1       -0.2606
     14 O          13.3799   43.7858    6.3044 O.2     1  UNL1       -0.2698
     15 H          13.5911   41.4106    8.4357 H       1  UNL1        0.1571
     16 C          15.3740   43.0419    7.3441 C.ar    1  UNL1        0.0537
     17 C          16.0066   42.0689    8.1319 C.ar    1  UNL1        0.0045
     18 C          17.3866   42.1233    8.3502 C.ar    1  UNL1        0.0001
     19 C          18.1439   43.1511    7.7821 C.ar    1  UNL1        0.0000
     20 C          17.5220   44.1246    6.9958 C.ar    1  UNL1        0.0001
     21 C          16.1422   44.0703    6.7775 C.ar    1  UNL1        0.0045
     22 C           8.1431   41.4077    6.1377 C.3     1  UNL1        0.1073
     23 N           8.1419   40.1176    5.4581 N.3     1  UNL1       -0.2685
     24 C           8.8621   38.2854    7.0138 C.3     1  UNL1        0.0188
     25 C           7.7054   39.0631    6.3845 C.3     1  UNL1        0.0724
     26 C           9.4975   39.8486    4.9952 C.3     1  UNL1        0.0724
     27 C           9.4525   39.1416    3.6546 C.3     1  UNL1        0.0188
@<TRIPOS>BOND
     1    24    25    1
     2    25    23    1
     3    26    23    1
     4    26    27    1
     5    22    23    1
     6    22     1    1
     7     1     5   ar
     8     2     4   ar
     9     2     6    1
    10     3    13    1
    11     3     5   ar
    12    12    16    1
    13    17    18   ar
    14    19    20   ar
    15    21    16   ar
    16     7     8   ar
    17     9    10   ar
    18    11     6   ar
    19    13    12   am
    20     1     2   ar
    21     3     4   ar
    22    12    14    2
    23    16    17   ar
    24    18    19   ar
    25    20    21   ar
    26     6     7   ar
    27     8     9   ar
    28    10    11   ar
    29    13    15    1
@<TRIPOS>MOLECULE
MolPort-005-289-825 5952430 CSSS03437130174 MCULE-4036785831 PubChem-17028188 ZINC000005952430
 27 29 0 0 0
SMALL
GASTEIGER

@<TRIPOS>ATOM
      1 C          13.3322   41.6303    7.9286 C.ar    1  UNL1        0.0436
      2 C          12.9292   40.9114    9.0662 C.ar    1  UNL1        0.0865
      3 C          10.9367   41.7168    8.3898 C.ar    1  UNL1        0.1655
      4 N          11.5887   40.9686    9.3059 N.ar    1  UNL1       -0.2242
      5 S          11.9753   42.3469    7.2351 S.2     1  UNL1       -0.0544
      6 C          13.8237   40.1415    9.9650 C.ar    1  UNL1        0.0179
      7 C          13.3592   39.5716   11.1604 C.ar    1  UNL1        0.0015
      8 C          14.2215   38.8466   11.9876 C.ar    1  UNL1        0.0000
      9 C          15.5603   38.6811   11.6260 C.ar    1  UNL1        0.0000
     10 C          16.0352   39.2400   10.4372 C.ar    1  UNL1        0.0000
     11 C          15.1709   39.9648    9.6118 C.ar    1  UNL1        0.0015
     12 C           8.8704   43.0169    9.0958 C.2     1  UNL1        0.2509
     13 N           9.5251   41.9484    8.3990 N.am    1  UNL1       -0.2606
     14 O           9.5425   43.8459    9.7684 O.2     1  UNL1       -0.2698
     15 H           8.9594   41.3260    7.8873 H       1  UNL1        0.1571
     16 C           7.4043   43.1471    9.0262 C.ar    1  UNL1        0.0537
     17 C           6.5787   42.2205    9.6798 C.ar    1  UNL1        0.0045
     18 C           5.1875   42.3432    9.6142 C.ar    1  UNL1        0.0001
     19 C           4.6119   43.3936    8.8945 C.ar    1  UNL1        0.0000
     20 C           5.4267   44.3214    8.2403 C.ar    1  UNL1        0.0001
     21 C           6.8179   44.1988    8.3058 C.ar    1  UNL1        0.0045
     22 C          14.7149   41.7696    7.3790 C.3     1  UNL1        0.1073
     23 N          15.1064   43.1740    7.3584 N.3     1  UNL1       -0.2685
     24 C          15.2536   45.1357    5.8009 C.3     1  UNL1        0.0188
     25 C          14.5405   43.8352    6.1739 C.3     1  UNL1        0.0724
     26 C          16.5621   43.2375    7.3205 C.3     1  UNL1        0.0724
     27 C          17.1354   42.6645    8.6020 C.3     1  UNL1        0.0188
@<TRIPOS>BOND
     1    24    25    1
     2    25    23    1
     3    26    23    1
     4    26    27    1
     5    22    23    1
     6    22     1    1
     7     1     5   ar
     8     2     4   ar
     9     2     6    1
    10     3    13    1
    11     3     5   ar
    12    12    16    1
    13    17    18   ar
    14    19    20   ar
    15    21    16   ar
    16     7     8   ar
    17     9    10   ar
    18    11     6   ar
    19    13    12   am
    20     1     2   ar
    21     3     4   ar
    22    12    14    2
    23    16    17   ar
    24    18    19   ar
    25    20    21   ar
    26     6     7   ar
    27     8     9   ar
    28    10    11   ar
    29    13    15    1
@<TRIPOS>MOLECULE
MolPort-005-289-825 5952430 CSSS03437130174 MCULE-4036785831 PubChem-17028188 ZINC000005952430
 27 29 0 0 0
SMALL
GASTEIGER

@<TRIPOS>ATOM
      1 C           7.8790   42.1848   10.1213 C.ar    1  UNL1        0.0436
      2 C           6.6944   41.6463    9.5920 C.ar    1  UNL1        0.0865
      3 C           8.1224   41.1642    7.9172 C.ar    1  UNL1        0.1655
      4 N           6.8503   41.0783    8.3629 N.ar    1  UNL1       -0.2242
      5 S           9.1235   41.9429    9.0130 S.2     1  UNL1       -0.0544
      6 C           5.3667   41.6597   10.2535 C.ar    1  UNL1        0.0179
      7 C           5.0641   40.8029   11.3230 C.ar    1  UNL1        0.0015
      8 C           3.8067   40.8386   11.9322 C.ar    1  UNL1        0.0000
      9 C           2.8369   41.7355   11.4790 C.ar    1  UNL1        0.0000
     10 C           3.1257   42.5964   10.4177 C.ar    1  UNL1        0.0000
     11 C           4.3838   42.5587    9.8099 C.ar    1  UNL1        0.0015
     12 C           9.1322   39.3506    6.4512 C.2     1  UNL1        0.2509
     13 N           8.5689   40.6528    6.6581 N.am    1  UNL1       -0.2606
     14 O           9.2676   38.5531    7.4192 O.2     1  UNL1       -0.2698
     15 H           8.4829   41.2405    5.8729 H       1  UNL1        0.1571
     16 C           9.5553   38.9416    5.1003 C.ar    1  UNL1        0.0537
     17 C           9.4349   37.6043    4.6945 C.ar    1  UNL1        0.0045
     18 C           9.8362   37.2153    3.4130 C.ar    1  UNL1        0.0001
     19 C          10.3608   38.1608    2.5279 C.ar    1  UNL1        0.0000
     20 C          10.4844   39.4952    2.9237 C.ar    1  UNL1        0.0001
     21 C          10.0832   39.8844    4.2052 C.ar    1  UNL1        0.0045
     22 C           8.0635   42.8661   11.4385 C.3     1  UNL1        0.1073
     23 N           9.1904   42.2780   12.1529 N.3     1  UNL1       -0.2685
     24 C          11.0172   40.6799   11.5168 C.3     1  UNL1        0.0188
     25 C          10.2828   41.9867   11.2136 C.3     1  UNL1        0.0724
     26 C           8.7325   41.0479   12.7865 C.3     1  UNL1        0.0724
     27 C           9.0308   41.0928   14.2725 C.3     1  UNL1        0.0188
@<TRIPOS>BOND
     1    24    25    1
     2    25    23    1
     3    26    23    1
     4    26    27    1
     5    22    23    1
     6    22     1    1
     7     1     5   ar
     8     2     4   ar
     9     2     6    1
    10     3    13    1
    11     3     5   ar
    12    12    16    1
    13    17    18   ar
    14    19    20   ar
    15    21    16   ar
    16     7     8   ar
    17     9    10   ar
    18    11     6   ar
    19    13    12   am
    20     1     2   ar
    21     3     4   ar
    22    12    14    2
    23    16    17   ar
    24    18    19   ar
    25    20    21   ar
    26     6     7   ar
    27     8     9   ar
    28    10    11   ar
    29    13    15    1
@<TRIPOS>MOLECULE
MolPort-005-289-825 5952430 CSSS03437130174 MCULE-4036785831 PubChem-17028188 ZINC000005952430
 27 29 0 0 0
SMALL
GASTEIGER

@<TRIPOS>ATOM
      1 C          13.2308   39.6063    9.3414 C.ar    1  UNL1        0.0436
      2 C          12.0711   38.9046    8.9725 C.ar    1  UNL1        0.0865
      3 C          13.5273   37.1925    9.1300 C.ar    1  UNL1        0.1655
      4 N          12.2551   37.5586    8.8625 N.ar    1  UNL1       -0.2242
      5 S          14.4935   38.5062    9.5175 S.2     1  UNL1       -0.0544
      6 C          10.7409   39.5075    8.7123 C.ar    1  UNL1        0.0179
      7 C           9.9946   39.1876    7.5676 C.ar    1  UNL1        0.0015
      8 C           8.7414   39.7663    7.3482 C.ar    1  UNL1        0.0000
      9 C           8.2186   40.6711    8.2747 C.ar    1  UNL1        0.0000
     10 C           8.9491   40.9959    9.4200 C.ar    1  UNL1        0.0000
     11 C          10.2023   40.4161    9.6372 C.ar    1  UNL1        0.0015
     12 C          15.2532   35.4269    8.5281 C.2     1  UNL1        0.2509
     13 N          14.0009   35.8433    9.0887 N.am    1  UNL1       -0.2606
     14 O          16.0369   36.2740    8.0186 O.2     1  UNL1       -0.2698
     15 H          13.4222   35.1468    9.4751 H       1  UNL1        0.1571
     16 C          15.6266   34.0017    8.5471 C.ar    1  UNL1        0.0537
     17 C          16.9760   33.6234    8.6069 C.ar    1  UNL1        0.0045
     18 C          17.3313   32.2713    8.6248 C.ar    1  UNL1        0.0001
     19 C          16.3397   31.2876    8.5833 C.ar    1  UNL1        0.0000
     20 C          14.9929   31.6553    8.5237 C.ar    1  UNL1        0.0001
     21 C          14.6374   33.0074    8.5057 C.ar    1  UNL1        0.0045
     22 C          13.3778   41.0777    9.5571 C.3     1  UNL1        0.1073
     23 N          13.8891   41.7124    8.3480 N.3     1  UNL1       -0.2685
     24 C          12.3073   42.1044    6.4401 C.3     1  UNL1        0.0188
     25 C          13.2398   41.1320    7.1638 C.3     1  UNL1        0.0724
     26 C          15.3280   41.4866    8.2921 C.3     1  UNL1        0.0724
     27 C          16.0071   42.6613    7.6154 C.3     1  UNL1        0.0188
@<TRIPOS>BOND
     1    24    25    1
     2    25    23    1
     3    26    23    1
     4    26    27    1
     5    22    23    1
     6    22     1    1
     7     1     5   ar
     8     2     4   ar
     9     2     6    1
    10     3    13    1
    11     3     5   ar
    12    12    16    1
    13    17    18   ar
    14    19    20   ar
    15    21    16   ar
    16     7     8   ar
    17     9    10   ar
    18    11     6   ar
    19    13    12   am
    20     1     2   ar
    21     3     4   ar
    22    12    14    2
    23    16    17   ar
    24    18    19   ar
    25    20    21   ar
    26     6     7   ar
    27     8     9   ar
    28    10    11   ar
    29    13    15    1
@<TRIPOS>MOLECULE
MolPort-005-289-825 5952430 CSSS03437130174 MCULE-4036785831 PubChem-17028188 ZINC000005952430
 27 29 0 0 0
SMALL
GASTEIGER

@<TRIPOS>ATOM
      1 C           8.0913   43.0682    9.4429 C.ar    1  UNL1        0.0436
      2 C           7.6460   41.8716   10.0289 C.ar    1  UNL1        0.0865
      3 C           9.8720   41.6150   10.2648 C.ar    1  UNL1        0.1655
      4 N           8.6537   41.0749   10.4845 N.ar    1  UNL1       -0.2242
      5 S           9.7739   43.1027    9.4990 S.2     1  UNL1       -0.0544
      6 C           6.2303   41.4522   10.1712 C.ar    1  UNL1        0.0179
      7 C           5.4003   41.2582    9.0563 C.ar    1  UNL1        0.0015
      8 C           4.0708   40.8582    9.2174 C.ar    1  UNL1        0.0000
      9 C           3.5566   40.6449   10.4982 C.ar    1  UNL1        0.0000
     10 C           4.3725   40.8309   11.6165 C.ar    1  UNL1        0.0000
     11 C           5.7017   41.2311   11.4529 C.ar    1  UNL1        0.0015
     12 C          12.2088   40.7560    9.7552 C.2     1  UNL1        0.2509
     13 N          11.1054   40.9945   10.6392 N.am    1  UNL1       -0.2606
     14 O          12.1410   41.0996    8.5433 O.2     1  UNL1       -0.2698
     15 H          11.2042   40.7091   11.5762 H       1  UNL1        0.1571
     16 C          13.4288   40.1058   10.2651 C.ar    1  UNL1        0.0537
     17 C          14.6389   40.2214    9.5652 C.ar    1  UNL1        0.0045
     18 C          15.7969   39.6047   10.0482 C.ar    1  UNL1        0.0001
     19 C          15.7534   38.8680   11.2348 C.ar    1  UNL1        0.0000
     20 C          14.5522   38.7476   11.9386 C.ar    1  UNL1        0.0001
     21 C          13.3941   39.3642   11.4557 C.ar    1  UNL1        0.0045
     22 C           7.2593   44.1617    8.8550 C.3     1  UNL1        0.1073
     23 N           7.2223   44.0370    7.4027 N.3     1  UNL1       -0.2685
     24 C           4.8770   44.8109    7.8456 C.3     1  UNL1        0.0188
     25 C           5.8289   44.0341    6.9349 C.3     1  UNL1        0.0724
     26 C           7.8759   42.7860    7.0390 C.3     1  UNL1        0.0724
     27 C           7.0266   42.0359    6.0314 C.3     1  UNL1        0.0188
@<TRIPOS>BOND
     1    24    25    1
     2    25    23    1
     3    26    23    1
     4    26    27    1
     5    22    23    1
     6    22     1    1
     7     1     5   ar
     8     2     4   ar
     9     2     6    1
    10     3    13    1
    11     3     5   ar
    12    12    16    1
    13    17    18   ar
    14    19    20   ar
    15    21    16   ar
    16     7     8   ar
    17     9    10   ar
    18    11     6   ar
    19    13    12   am
    20     1     2   ar
    21     3     4   ar
    22    12    14    2
    23    16    17   ar
    24    18    19   ar
    25    20    21   ar
    26     6     7   ar
    27     8     9   ar
    28    10    11   ar
    29    13    15    1
@<TRIPOS>MOLECULE
MolPort-005-289-825 5952430 CSSS03437130174 MCULE-4036785831 PubChem-17028188 ZINC000005952430
 27 29 0 0 0
SMALL
GASTEIGER

@<TRIPOS>ATOM
      1 C           9.8570   40.7480    7.6019 C.ar    1  UNL1        0.0436
      2 C          10.1613   41.2323    8.8850 C.ar    1  UNL1        0.0865
      3 C          12.1770   41.4457    7.9011 C.ar    1  UNL1        0.1655
      4 N          11.4598   41.6198    9.0322 N.ar    1  UNL1       -0.2242
      5 S          11.2508   40.8065    6.6589 S.2     1  UNL1       -0.0544
      6 C           9.2095   41.3394   10.0177 C.ar    1  UNL1        0.0179
      7 C           7.8481   41.6150    9.8168 C.ar    1  UNL1        0.0015
      8 C           6.9710   41.7062   10.9011 C.ar    1  UNL1        0.0000
      9 C           7.4464   41.5197   12.2010 C.ar    1  UNL1        0.0000
     10 C           8.7983   41.2413   12.4152 C.ar    1  UNL1        0.0000
     11 C           9.6737   41.1509   11.3292 C.ar    1  UNL1        0.0015
     12 C          14.0868   42.8901    7.0499 C.2     1  UNL1        0.2509
     13 N          13.5650   41.7668    7.7723 N.am    1  UNL1       -0.2606
     14 O          13.3067   43.6894    6.4635 O.2     1  UNL1       -0.2698
     15 H          14.2120   41.1704    8.2138 H       1  UNL1        0.1571
     16 C          15.5424   43.1118    6.9919 C.ar    1  UNL1        0.0537
     17 C          16.3862   42.5320    7.9506 C.ar    1  UNL1        0.0045
     18 C          17.7674   42.7419    7.8965 C.ar    1  UNL1        0.0001
     19 C          18.3148   43.5330    6.8831 C.ar    1  UNL1        0.0000
     20 C          17.4817   44.1146    5.9238 C.ar    1  UNL1        0.0001
     21 C          16.1005   43.9048    5.9778 C.ar    1  UNL1        0.0045
     22 C           8.5384   40.2534    7.1018 C.3     1  UNL1        0.1073
     23 N           7.9996   41.1783    6.1116 N.3     1  UNL1       -0.2685
     24 C           6.9631   43.4085    6.6088 C.3     1  UNL1        0.0188
     25 C           8.2366   42.5646    6.5388 C.3     1  UNL1        0.0724
     26 C           6.5688   40.9285    5.9904 C.3     1  UNL1        0.0724
     27 C           6.2862   39.4515    6.1846 C.3     1  UNL1        0.0188
@<TRIPOS>BOND
     1    24    25    1
     2    25    23    1
     3    26    23    1
     4    26    27    1
     5    22    23    1
     6    22     1    1
     7     1     5   ar
     8     2     4   ar
     9     2     6    1
    10     3    13    1
    11     3     5   ar
    12    12    16    1
    13    17    18   ar
    14    19    20   ar
    15    21    16   ar
    16     7     8   ar
    17     9    10   ar
    18    11     6   ar
    19    13    12   am
    20     1     2   ar
    21     3     4   ar
    22    12    14    2
    23    16    17   ar
    24    18    19   ar
    25    20    21   ar
    26     6     7   ar
    27     8     9   ar
    28    10    11   ar
    29    13    15    1
@<TRIPOS>MOLECULE
MolPort-005-289-825 5952430 CSSS03437130174 MCULE-4036785831 PubChem-17028188 ZINC000005952430
 27 29 0 0 0
SMALL
GASTEIGER

@<TRIPOS>ATOM
      1 C          12.6844   40.3290    9.6033 C.ar    1  UNL1        0.0436
      2 C          11.9858   39.1190    9.7488 C.ar    1  UNL1        0.0865
      3 C          10.2879   40.5798    9.9940 C.ar    1  UNL1        0.1655
      4 N          10.6492   39.2787    9.9631 N.ar    1  UNL1       -0.2242
      5 S          11.5943   41.6031    9.7582 S.2     1  UNL1       -0.0544
      6 C          12.5825   37.7623    9.6864 C.ar    1  UNL1        0.0179
      7 C          13.6777   37.4731    8.8577 C.ar    1  UNL1        0.0015
      8 C          14.2244   36.1873    8.8207 C.ar    1  UNL1        0.0000
      9 C          13.6823   35.1753    9.6158 C.ar    1  UNL1        0.0000
     10 C          12.5945   35.4500   10.4478 C.ar    1  UNL1        0.0000
     11 C          12.0492   36.7366   10.4829 C.ar    1  UNL1        0.0015
     12 C           8.0285   41.3948    9.1640 C.2     1  UNL1        0.2509
     13 N           8.9488   41.0371   10.2037 N.am    1  UNL1       -0.2606
     14 O           8.3737   41.3194    7.9529 O.2     1  UNL1       -0.2698
     15 H           8.6348   41.1120   11.1337 H       1  UNL1        0.1571
     16 C           6.6721   41.8533    9.5120 C.ar    1  UNL1        0.0537
     17 C           6.0480   42.8574    8.7572 C.ar    1  UNL1        0.0045
     18 C           4.7611   43.2932    9.0867 C.ar    1  UNL1        0.0001
     19 C           4.0888   42.7278   10.1735 C.ar    1  UNL1        0.0000
     20 C           4.7028   41.7269   10.9310 C.ar    1  UNL1        0.0001
     21 C           5.9898   41.2911   10.6016 C.ar    1  UNL1        0.0045
     22 C          14.1456   40.5149    9.3509 C.3     1  UNL1        0.1073
     23 N          14.3577   41.6292    8.4347 N.3     1  UNL1       -0.2685
     24 C          13.0115   42.5194    6.5135 C.3     1  UNL1        0.0188
     25 C          13.7479   41.3299    7.1312 C.3     1  UNL1        0.0724
     26 C          15.7942   41.8236    8.2834 C.3     1  UNL1        0.0724
     27 C          16.0609   43.0666    7.4569 C.3     1  UNL1        0.0188
@<TRIPOS>BOND
     1    24    25    1
     2    25    23    1
     3    26    23    1
     4    26    27    1
     5    22    23    1
     6    22     1    1
     7     1     5   ar
     8     2     4   ar
     9     2     6    1
    10     3    13    1
    11     3     5   ar
    12    12    16    1
    13    17    18   ar
    14    19    20   ar
    15    21    16   ar
    16     7     8   ar
    17     9    10   ar
    18    11     6   ar
    19    13    12   am
    20     1     2   ar
    21     3     4   ar
    22    12    14    2
    23    16    17   ar
    24    18    19   ar
    25    20    21   ar
    26     6     7   ar
    27     8     9   ar
    28    10    11   ar
    29    13    15    1
@<TRIPOS>MOLECULE
MolPort-005-289-825 5952430 CSSS03437130174 MCULE-4036785831 PubChem-17028188 ZINC000005952430
 27 29 0 0 0
SMALL
GASTEIGER

@<TRIPOS>ATOM
      1 C          11.6533   41.9996    8.5426 C.ar    1  UNL1        0.0436
      2 C          11.6625   40.9288    9.4519 C.ar    1  UNL1        0.0865
      3 C           9.4409   41.1924    9.1846 C.ar    1  UNL1        0.1655
      4 N          10.4189   40.4898    9.7961 N.ar    1  UNL1       -0.2242
      5 S          10.0547   42.3909    8.1866 S.2     1  UNL1       -0.0544
      6 C          12.8728   40.2887   10.0227 C.ar    1  UNL1        0.0179
      7 C          12.8492   39.6378   11.2659 C.ar    1  UNL1        0.0015
      8 C          14.0026   39.0383   11.7795 C.ar    1  UNL1        0.0000
      9 C          15.1943   39.0811   11.0524 C.ar    1  UNL1        0.0000
     10 C          15.2312   39.7226    9.8122 C.ar    1  UNL1        0.0000
     11 C          14.0764   40.3215    9.3008 C.ar    1  UNL1        0.0015
     12 C           7.1666   41.7370   10.1793 C.2     1  UNL1        0.2509
     13 N           8.0430   40.9474    9.3642 N.am    1  UNL1       -0.2606
     14 O           7.6093   42.7364   10.8091 O.2     1  UNL1       -0.2698
     15 H           7.6525   40.1771    8.8915 H       1  UNL1        0.1571
     16 C           5.7410   41.3789   10.2820 C.ar    1  UNL1        0.0537
     17 C           5.2385   40.8004   11.4569 C.ar    1  UNL1        0.0045
     18 C           3.8860   40.4602   11.5553 C.ar    1  UNL1        0.0001
     19 C           3.0260   40.6963   10.4795 C.ar    1  UNL1        0.0000
     20 C           3.5179   41.2723    9.3052 C.ar    1  UNL1        0.0001
     21 C           4.8704   41.6125    9.2067 C.ar    1  UNL1        0.0045
     22 C          12.8304   42.7091    7.9558 C.3     1  UNL1        0.1073
     23 N          12.8360   42.5552    6.5058 N.3     1  UNL1       -0.2685
     24 C          11.3434   41.0701    5.1411 C.3     1  UNL1        0.0188
     25 C          12.4910   41.1723    6.1468 C.3     1  UNL1        0.0724
     26 C          14.1715   42.8808    6.0213 C.3     1  UNL1        0.0724
     27 C          14.2616   44.3639    5.7189 C.3     1  UNL1        0.0188
@<TRIPOS>BOND
     1    24    25    1
     2    25    23    1
     3    26    23    1
     4    26    27    1
     5    22    23    1
     6    22     1    1
     7     1     5   ar
     8     2     4   ar
     9     2     6    1
    10     3    13    1
    11     3     5   ar
    12    12    16    1
    13    17    18   ar
    14    19    20   ar
    15    21    16   ar
    16     7     8   ar
    17     9    10   ar
    18    11     6   ar
    19    13    12   am
    20     1     2   ar
    21     3     4   ar
    22    12    14    2
    23    16    17   ar
    24    18    19   ar
    25    20    21   ar
    26     6     7   ar
    27     8     9   ar
    28    10    11   ar
    29    13    15    1
@<TRIPOS>MOLECULE
MolPort-005-289-825 5952430 CSSS03437130174 MCULE-4036785831 PubChem-17028188 ZINC000005952430
 27 29 0 0 0
SMALL
GASTEIGER

@<TRIPOS>ATOM
      1 C          13.4364   40.4034    9.2856 C.ar    1  UNL1        0.0436
      2 C          12.9796   41.3730    8.3776 C.ar    1  UNL1        0.0865
      3 C          11.0118   40.6802    9.2288 C.ar    1  UNL1        0.1655
      4 N          11.6242   41.5157    8.3621 N.ar    1  UNL1       -0.2242
      5 S          12.1063   39.7220   10.0615 S.2     1  UNL1       -0.0544
      6 C          13.8349   42.1988    7.4904 C.ar    1  UNL1        0.0179
      7 C          13.3461   42.7518    6.2967 C.ar    1  UNL1        0.0015
      8 C          14.1715   43.5304    5.4806 C.ar    1  UNL1        0.0000
      9 C          15.4969   43.7671    5.8516 C.ar    1  UNL1        0.0000
     10 C          15.9954   43.2258    7.0388 C.ar    1  UNL1        0.0000
     11 C          15.1681   42.4472    7.8532 C.ar    1  UNL1        0.0015
     12 C           8.7410   41.7469    9.6335 C.2     1  UNL1        0.2509
     13 N           9.5954   40.6157    9.4180 N.am    1  UNL1       -0.2606
     14 O           9.2225   42.9124    9.6683 O.2     1  UNL1       -0.2698
     15 H           9.1746   39.7259    9.3988 H       1  UNL1        0.1571
     16 C           7.2926   41.5468    9.8156 C.ar    1  UNL1        0.0537
     17 C           6.4604   41.3414    8.7053 C.ar    1  UNL1        0.0045
     18 C           5.0860   41.1516    8.8770 C.ar    1  UNL1        0.0001
     19 C           4.5336   41.1656   10.1605 C.ar    1  UNL1        0.0000
     20 C           5.3551   41.3696   11.2724 C.ar    1  UNL1        0.0001
     21 C           6.7295   41.5594   11.1008 C.ar    1  UNL1        0.0045
     22 C          14.8500   40.0036    9.5599 C.3     1  UNL1        0.1073
     23 N          14.9398   38.5566    9.7161 N.3     1  UNL1       -0.2685
     24 C          14.6366   36.4605    8.3706 C.3     1  UNL1        0.0188
     25 C          14.1709   37.8890    8.6561 C.3     1  UNL1        0.0724
     26 C          14.3985   38.2080   11.0237 C.3     1  UNL1        0.0724
     27 C          15.4115   38.5349   12.1036 C.3     1  UNL1        0.0188
@<TRIPOS>BOND
     1    24    25    1
     2    25    23    1
     3    26    23    1
     4    26    27    1
     5    22    23    1
     6    22     1    1
     7     1     5   ar
     8     2     4   ar
     9     2     6    1
    10     3    13    1
    11     3     5   ar
    12    12    16    1
    13    17    18   ar
    14    19    20   ar
    15    21    16   ar
    16     7     8   ar
    17     9    10   ar
    18    11     6   ar
    19    13    12   am
    20     1     2   ar
    21     3     4   ar
    22    12    14    2
    23    16    17   ar
    24    18    19   ar
    25    20    21   ar
    26     6     7   ar
    27     8     9   ar
    28    10    11   ar
    29    13    15    1
