@<TRIPOS>MOLECULE
MolPort-007-713-555 ChemDiv-E002-0466 MCULE-7840637079 PubChem-22509996 ZINC000006768194
 30 32 0 0 0
SMALL
GASTEIGER

@<TRIPOS>ATOM
      1 C          11.6149   41.6362    7.3249 C.2     1  UNL1        0.3096
      2 N          10.5640   41.6764    6.3546 N.am    1  UNL1       -0.2468
      3 N          12.9472   41.3415    6.8858 N.am    1  UNL1       -0.2678
      4 O          11.3697   41.8564    8.5416 O.2     1  UNL1       -0.2521
      5 H          10.8050   41.4985    5.4168 H       1  UNL1        0.1584
      6 H          13.0630   41.1808    5.9215 H       1  UNL1        0.1564
      7 C          14.1334   41.2539    7.6929 C.ar    1  UNL1        0.0578
      8 C          14.2647   40.2409    8.6568 C.ar    1  UNL1        0.0149
      9 C          15.4103   40.1446    9.4463 C.ar    1  UNL1        0.0013
     10 C          16.4450   41.0628    9.2832 C.ar    1  UNL1        0.0003
     11 C          16.3320   42.0755    8.3306 C.ar    1  UNL1        0.0077
     12 C          15.1863   42.1894    7.5258 C.ar    1  UNL1        0.0891
     13 C          15.1356   43.2921    6.5333 C.2     1  UNL1        0.3425
     14 O          14.1643   43.3615    5.7293 O.2     1  UNL1       -0.2448
     15 C          17.3391   44.0497    5.7324 C.3     1  UNL1        0.2560
     16 O          16.1479   44.2531    6.4776 O.3     1  UNL1       -0.4413
     17 C           7.0436   42.4995    7.5596 C.ar    1  UNL1        0.1905
     18 C           9.1902   41.9549    6.6415 C.ar    1  UNL1        0.1904
     19 N           7.0028   42.2040    6.2392 N.ar    1  UNL1       -0.1239
     20 N           8.1942   41.8949    5.7302 N.ar    1  UNL1       -0.1240
     21 S           8.6235   42.4112    8.1570 S.2     1  UNL1       -0.0151
     22 N           5.8862   42.9210    8.3067 N.pl3   1  UNL1       -0.2659
     23 C           5.2547   42.0868    9.2993 C.ar    1  UNL1        0.0531
     24 C           4.0226   41.4706    9.0239 C.ar    1  UNL1        0.0149
     25 C           3.4169   40.6381    9.9693 C.ar    1  UNL1        0.0013
     26 C           4.0407   40.4059   11.1974 C.ar    1  UNL1        0.0001
     27 C           5.2715   41.0035   11.4788 C.ar    1  UNL1        0.0013
     28 C           5.8768   41.8357   10.5332 C.ar    1  UNL1        0.0149
     29 C           5.3164   44.2339    8.0168 C.3     1  UNL1        0.0975
     30 C           3.8494   44.2618    8.4037 C.3     1  UNL1        0.0236
@<TRIPOS>BOND
     1    17    22    1
     2    17    21   ar
     3    29    22    1
     4    29    30    1
     5    24    25   ar
     6    26    27   ar
     7    28    23   ar
     8    18     2    1
     9    18    21   ar
    10     1     3   am
    11     8     9   ar
    12    10    11   ar
    13    12    13    1
    14    12     7   ar
    15    13    16    1
    16    15    16    1
    17    22    23    1
    18    19    20   ar
    19     2     1   am
    20     3     7    1
    21    17    19   ar
    22    23    24   ar
    23    25    26   ar
    24    27    28   ar
    25    18    20   ar
    26     1     4    2
    27     7     8   ar
    28     9    10   ar
    29    11    12   ar
    30    13    14    2
    31     2     5    1
    32     3     6    1
@<TRIPOS>MOLECULE
MolPort-007-713-555 ChemDiv-E002-0466 MCULE-7840637079 PubChem-22509996 ZINC000006768194
 30 32 0 0 0
SMALL
GASTEIGER

@<TRIPOS>ATOM
      1 C           7.9190   41.9511   10.1091 C.2     1  UNL1        0.3096
      2 N           9.1527   42.5626   10.4983 N.am    1  UNL1       -0.2468
      3 N           6.6925   42.4871   10.6219 N.am    1  UNL1       -0.2678
      4 O           7.9151   40.9603    9.3299 O.2     1  UNL1       -0.2521
      5 H           9.1045   43.3343   11.1078 H       1  UNL1        0.1584
      6 H           6.7731   43.2613   11.2247 H       1  UNL1        0.1564
      7 C           5.3582   42.0232   10.3564 C.ar    1  UNL1        0.0578
      8 C           4.8704   40.8642   10.9820 C.ar    1  UNL1        0.0149
      9 C           3.5778   40.4033   10.7333 C.ar    1  UNL1        0.0013
     10 C           2.7511   41.0967    9.8525 C.ar    1  UNL1        0.0003
     11 C           3.2186   42.2499    9.2222 C.ar    1  UNL1        0.0077
     12 C           4.5173   42.7301    9.4594 C.ar    1  UNL1        0.0891
     13 C           4.9468   43.9633    8.7533 C.2     1  UNL1        0.3425
     14 O           4.1244   44.9086    8.5957 O.2     1  UNL1       -0.2448
     15 C           6.6008   43.6799    6.9493 C.3     1  UNL1        0.2560
     16 O           6.2480   44.0911    8.2616 O.3     1  UNL1       -0.4413
     17 C          12.5579   41.0748    9.6533 C.ar    1  UNL1        0.1905
     18 C          10.4510   42.1398   10.0705 C.ar    1  UNL1        0.1904
     19 N          12.3736   42.2020    8.9267 N.ar    1  UNL1       -0.1239
     20 N          11.2060   42.7976    9.1631 N.ar    1  UNL1       -0.1240
     21 S          11.2156   40.7513   10.6304 S.2     1  UNL1       -0.0151
     22 N          13.7197   40.2337    9.5180 N.pl3   1  UNL1       -0.2659
     23 C          13.7212   38.8422    9.8970 C.ar    1  UNL1        0.0531
     24 C          14.0810   38.4658   11.2018 C.ar    1  UNL1        0.0149
     25 C          14.0582   37.1221   11.5860 C.ar    1  UNL1        0.0013
     26 C          13.6674   36.1407   10.6721 C.ar    1  UNL1        0.0001
     27 C          13.2963   36.5031    9.3752 C.ar    1  UNL1        0.0013
     28 C          13.3190   37.8468    8.9915 C.ar    1  UNL1        0.0149
     29 C          14.9503   40.8311    9.0069 C.3     1  UNL1        0.0975
     30 C          14.6794   41.5360    7.6907 C.3     1  UNL1        0.0236
@<TRIPOS>BOND
     1    17    22    1
     2    17    21   ar
     3    29    22    1
     4    29    30    1
     5    24    25   ar
     6    26    27   ar
     7    28    23   ar
     8    18     2    1
     9    18    21   ar
    10     1     3   am
    11     8     9   ar
    12    10    11   ar
    13    12    13    1
    14    12     7   ar
    15    13    16    1
    16    15    16    1
    17    22    23    1
    18    19    20   ar
    19     2     1   am
    20     3     7    1
    21    17    19   ar
    22    23    24   ar
    23    25    26   ar
    24    27    28   ar
    25    18    20   ar
    26     1     4    2
    27     7     8   ar
    28     9    10   ar
    29    11    12   ar
    30    13    14    2
    31     2     5    1
    32     3     6    1
@<TRIPOS>MOLECULE
MolPort-007-713-555 ChemDiv-E002-0466 MCULE-7840637079 PubChem-22509996 ZINC000006768194
 30 32 0 0 0
SMALL
GASTEIGER

@<TRIPOS>ATOM
      1 C          12.0203   41.2595    9.0718 C.2     1  UNL1        0.3096
      2 N          10.7950   40.5255    9.1575 N.am    1  UNL1       -0.2468
      3 N          13.2178   40.5610    8.7076 N.am    1  UNL1       -0.2678
      4 O          12.0420   42.4967    9.3125 O.2     1  UNL1       -0.2521
      5 H          10.8283   39.5617    8.9595 H       1  UNL1        0.1584
      6 H          13.1245   39.5964    8.5341 H       1  UNL1        0.1564
      7 C          14.5395   41.1082    8.5669 C.ar    1  UNL1        0.0578
      8 C          15.5786   40.6840    9.4113 C.ar    1  UNL1        0.0149
      9 C          16.8654   41.2068    9.2854 C.ar    1  UNL1        0.0013
     10 C          17.1332   42.1645    8.3101 C.ar    1  UNL1        0.0003
     11 C          16.1135   42.5975    7.4625 C.ar    1  UNL1        0.0077
     12 C          14.8110   42.0833    7.5734 C.ar    1  UNL1        0.0891
     13 C          13.7766   42.5908    6.6374 C.2     1  UNL1        0.3425
     14 O          13.6589   43.8348    6.4552 O.2     1  UNL1       -0.2448
     15 C          11.5395   41.9511    5.8271 C.3     1  UNL1        0.2560
     16 O          12.9326   41.7104    5.9564 O.3     1  UNL1       -0.4413
     17 C           7.2951   41.9537    9.6417 C.ar    1  UNL1        0.1905
     18 C           9.5251   41.0835    9.5085 C.ar    1  UNL1        0.1904
     19 N           7.9491   41.9704   10.8269 N.ar    1  UNL1       -0.1239
     20 N           9.1903   41.4933   10.7519 N.ar    1  UNL1       -0.1240
     21 S           8.2618   41.2952    8.4198 S.2     1  UNL1       -0.0151
     22 N           5.9222   42.3648    9.4958 N.pl3   1  UNL1       -0.2659
     23 C           4.8790   41.9247   10.3892 C.ar    1  UNL1        0.0531
     24 C           3.7207   42.7012   10.5595 C.ar    1  UNL1        0.0149
     25 C           2.6923   42.2688   11.4016 C.ar    1  UNL1        0.0013
     26 C           2.8074   41.0512   12.0765 C.ar    1  UNL1        0.0001
     27 C           3.9490   40.2645   11.9067 C.ar    1  UNL1        0.0013
     28 C           4.9769   40.6971   11.0644 C.ar    1  UNL1        0.0149
     29 C           5.5763   43.2354    8.3756 C.3     1  UNL1        0.0975
     30 C           6.3728   44.5246    8.4527 C.3     1  UNL1        0.0236
@<TRIPOS>BOND
     1    17    22    1
     2    17    21   ar
     3    29    22    1
     4    29    30    1
     5    24    25   ar
     6    26    27   ar
     7    28    23   ar
     8    18     2    1
     9    18    21   ar
    10     1     3   am
    11     8     9   ar
    12    10    11   ar
    13    12    13    1
    14    12     7   ar
    15    13    16    1
    16    15    16    1
    17    22    23    1
    18    19    20   ar
    19     2     1   am
    20     3     7    1
    21    17    19   ar
    22    23    24   ar
    23    25    26   ar
    24    27    28   ar
    25    18    20   ar
    26     1     4    2
    27     7     8   ar
    28     9    10   ar
    29    11    12   ar
    30    13    14    2
    31     2     5    1
    32     3     6    1
@<TRIPOS>MOLECULE
MolPort-007-713-555 ChemDiv-E002-0466 MCULE-7840637079 PubChem-22509996 ZINC000006768194
 30 32 0 0 0
SMALL
GASTEIGER

@<TRIPOS>ATOM
      1 C           7.8606   42.0066    9.4661 C.2     1  UNL1        0.3096
      2 N           9.1359   42.6457    9.5786 N.am    1  UNL1       -0.2468
      3 N           6.7953   42.4391   10.3221 N.am    1  UNL1       -0.2678
      4 O           7.6814   41.0814    8.6289 O.2     1  UNL1       -0.2521
      5 H           9.2267   43.3634   10.2463 H       1  UNL1        0.1584
      6 H           7.0087   43.1663   10.9505 H       1  UNL1        0.1564
      7 C           5.4511   41.9322   10.3677 C.ar    1  UNL1        0.0578
      8 C           5.1492   40.7832   11.1168 C.ar    1  UNL1        0.0149
      9 C           3.8491   40.2810   11.1696 C.ar    1  UNL1        0.0013
     10 C           2.8284   40.9224   10.4717 C.ar    1  UNL1        0.0003
     11 C           3.1098   42.0648    9.7225 C.ar    1  UNL1        0.0077
     12 C           4.4126   42.5861    9.6567 C.ar    1  UNL1        0.0891
     13 C           4.6378   43.8049    8.8397 C.2     1  UNL1        0.3425
     14 O           3.7013   44.6400    8.6967 O.2     1  UNL1       -0.2448
     15 C           6.0852   43.7939    6.8459 C.3     1  UNL1        0.2560
     16 O           5.8714   44.0395    8.2277 O.3     1  UNL1       -0.4413
     17 C          12.4480   42.0649    7.7852 C.ar    1  UNL1        0.1905
     18 C          10.2894   42.3227    8.7961 C.ar    1  UNL1        0.1904
     19 N          11.4773   41.3533    7.1657 N.ar    1  UNL1       -0.1239
     20 N          10.2766   41.5015    7.7229 N.ar    1  UNL1       -0.1240
     21 S          11.8315   42.9124    9.1129 S.2     1  UNL1       -0.0151
     22 N          13.8334   42.0107    7.3940 N.pl3   1  UNL1       -0.2659
     23 C          14.8602   41.4568    8.2417 C.ar    1  UNL1        0.0531
     24 C          14.5961   40.3160    9.0179 C.ar    1  UNL1        0.0149
     25 C          15.5937   39.7558    9.8208 C.ar    1  UNL1        0.0013
     26 C          16.8688   40.3253    9.8502 C.ar    1  UNL1        0.0001
     27 C          17.1474   41.4529    9.0743 C.ar    1  UNL1        0.0013
     28 C          16.1497   42.0126    8.2714 C.ar    1  UNL1        0.0149
     29 C          14.2088   42.5720    6.0992 C.3     1  UNL1        0.0975
     30 C          14.0047   44.0756    6.1045 C.3     1  UNL1        0.0236
@<TRIPOS>BOND
     1    17    22    1
     2    17    21   ar
     3    29    22    1
     4    29    30    1
     5    24    25   ar
     6    26    27   ar
     7    28    23   ar
     8    18     2    1
     9    18    21   ar
    10     1     3   am
    11     8     9   ar
    12    10    11   ar
    13    12    13    1
    14    12     7   ar
    15    13    16    1
    16    15    16    1
    17    22    23    1
    18    19    20   ar
    19     2     1   am
    20     3     7    1
    21    17    19   ar
    22    23    24   ar
    23    25    26   ar
    24    27    28   ar
    25    18    20   ar
    26     1     4    2
    27     7     8   ar
    28     9    10   ar
    29    11    12   ar
    30    13    14    2
    31     2     5    1
    32     3     6    1
@<TRIPOS>MOLECULE
MolPort-007-713-555 ChemDiv-E002-0466 MCULE-7840637079 PubChem-22509996 ZINC000006768194
 30 32 0 0 0
SMALL
GASTEIGER

@<TRIPOS>ATOM
      1 C          12.3335   42.0627    7.3789 C.2     1  UNL1        0.3096
      2 N          11.1729   41.3973    6.8712 N.am    1  UNL1       -0.2468
      3 N          13.6268   41.5375    7.0527 N.am    1  UNL1       -0.2678
      4 O          12.2167   43.0908    8.0988 O.2     1  UNL1       -0.2521
      5 H          11.3152   40.5990    6.3129 H       1  UNL1        0.1584
      6 H          13.6403   40.7325    6.4861 H       1  UNL1        0.1564
      7 C          14.9060   42.0522    7.4584 C.ar    1  UNL1        0.0578
      8 C          15.4611   43.1686    6.8119 C.ar    1  UNL1        0.0149
      9 C          16.7014   43.6780    7.1957 C.ar    1  UNL1        0.0013
     10 C          17.4073   43.0768    8.2351 C.ar    1  UNL1        0.0003
     11 C          16.8713   41.9672    8.8887 C.ar    1  UNL1        0.0077
     12 C          15.6238   41.4391    8.5169 C.ar    1  UNL1        0.0891
     13 C          15.1162   40.2566    9.2570 C.2     1  UNL1        0.3425
     14 O          15.7936   39.1910    9.2672 O.2     1  UNL1       -0.2448
     15 C          13.6839   39.5916   11.1483 C.3     1  UNL1        0.2560
     16 O          13.8997   40.3080    9.9418 O.3     1  UNL1       -0.4413
     17 C           7.6904   42.4902    7.9667 C.ar    1  UNL1        0.1905
     18 C           9.8218   41.8019    7.1118 C.ar    1  UNL1        0.1904
     19 N           7.7081   42.3491    6.6205 N.ar    1  UNL1       -0.1239
     20 N           8.8903   41.9603    6.1459 N.ar    1  UNL1       -0.1240
     21 S           9.2061   42.1515    8.6366 S.2     1  UNL1       -0.0151
     22 N           6.5380   42.9598    8.6926 N.pl3   1  UNL1       -0.2659
     23 C           5.6900   42.0806    9.4592 C.ar    1  UNL1        0.0531
     24 C           6.0938   41.6416   10.7312 C.ar    1  UNL1        0.0149
     25 C           5.2659   40.8121   11.4930 C.ar    1  UNL1        0.0013
     26 C           4.0216   40.4191   10.9947 C.ar    1  UNL1        0.0001
     27 C           3.6036   40.8581    9.7363 C.ar    1  UNL1        0.0013
     28 C           4.4316   41.6876    8.9750 C.ar    1  UNL1        0.0149
     29 C           6.2035   44.3792    8.6160 C.3     1  UNL1        0.0975
     30 C           5.1233   44.6042    7.5742 C.3     1  UNL1        0.0236
@<TRIPOS>BOND
     1    17    22    1
     2    17    21   ar
     3    29    22    1
     4    29    30    1
     5    24    25   ar
     6    26    27   ar
     7    28    23   ar
     8    18     2    1
     9    18    21   ar
    10     1     3   am
    11     8     9   ar
    12    10    11   ar
    13    12    13    1
    14    12     7   ar
    15    13    16    1
    16    15    16    1
    17    22    23    1
    18    19    20   ar
    19     2     1   am
    20     3     7    1
    21    17    19   ar
    22    23    24   ar
    23    25    26   ar
    24    27    28   ar
    25    18    20   ar
    26     1     4    2
    27     7     8   ar
    28     9    10   ar
    29    11    12   ar
    30    13    14    2
    31     2     5    1
    32     3     6    1
@<TRIPOS>MOLECULE
MolPort-007-713-555 ChemDiv-E002-0466 MCULE-7840637079 PubChem-22509996 ZINC000006768194
 30 32 0 0 0
SMALL
GASTEIGER

@<TRIPOS>ATOM
      1 C           8.0464   41.7829   10.0788 C.2     1  UNL1        0.3096
      2 N           9.3362   42.2950   10.4275 N.am    1  UNL1       -0.2468
      3 N           6.8813   42.4943   10.5162 N.am    1  UNL1       -0.2678
      4 O           7.9408   40.7262    9.3998 O.2     1  UNL1       -0.2521
      5 H           9.3674   43.1237   10.9581 H       1  UNL1        0.1584
      6 H           7.0410   43.3112   11.0421 H       1  UNL1        0.1564
      7 C           5.5066   42.1512   10.2746 C.ar    1  UNL1        0.0578
      8 C           4.9084   41.0834   10.9635 C.ar    1  UNL1        0.0149
      9 C           3.5755   40.7401   10.7386 C.ar    1  UNL1        0.0013
     10 C           2.8185   41.4617    9.8185 C.ar    1  UNL1        0.0003
     11 C           3.3961   42.5254    9.1252 C.ar    1  UNL1        0.0077
     12 C           4.7369   42.8867    9.3376 C.ar    1  UNL1        0.0891
     13 C           5.2842   44.0294    8.5641 C.2     1  UNL1        0.3425
     14 O           4.5605   45.0429    8.3549 O.2     1  UNL1       -0.2448
     15 C           6.9026   43.4018    6.8155 C.3     1  UNL1        0.2560
     16 O           6.5886   43.9978    8.0652 O.3     1  UNL1       -0.4413
     17 C          12.7185   41.0660    9.1735 C.ar    1  UNL1        0.1905
     18 C          10.5841   41.6963   10.0649 C.ar    1  UNL1        0.1904
     19 N          12.2371   40.1878   10.0842 N.ar    1  UNL1       -0.1239
     20 N          11.0483   40.5342   10.5748 N.ar    1  UNL1       -0.1240
     21 S          11.6579   42.3660    8.9583 S.2     1  UNL1       -0.0151
     22 N          14.0127   40.9278    8.5560 N.pl3   1  UNL1       -0.2659
     23 C          14.5532   41.9137    7.6529 C.ar    1  UNL1        0.0531
     24 C          13.7718   42.4055    6.5940 C.ar    1  UNL1        0.0149
     25 C          14.2775   43.3816    5.7308 C.ar    1  UNL1        0.0013
     26 C          15.5672   43.8828    5.9219 C.ar    1  UNL1        0.0001
     27 C          16.3500   43.4105    6.9780 C.ar    1  UNL1        0.0013
     28 C          15.8439   42.4346    7.8410 C.ar    1  UNL1        0.0149
     29 C          14.7870   39.7216    8.8354 C.3     1  UNL1        0.0975
     30 C          15.5084   39.8618   10.1631 C.3     1  UNL1        0.0236
@<TRIPOS>BOND
     1    17    22    1
     2    17    21   ar
     3    29    22    1
     4    29    30    1
     5    24    25   ar
     6    26    27   ar
     7    28    23   ar
     8    18     2    1
     9    18    21   ar
    10     1     3   am
    11     8     9   ar
    12    10    11   ar
    13    12    13    1
    14    12     7   ar
    15    13    16    1
    16    15    16    1
    17    22    23    1
    18    19    20   ar
    19     2     1   am
    20     3     7    1
    21    17    19   ar
    22    23    24   ar
    23    25    26   ar
    24    27    28   ar
    25    18    20   ar
    26     1     4    2
    27     7     8   ar
    28     9    10   ar
    29    11    12   ar
    30    13    14    2
    31     2     5    1
    32     3     6    1
@<TRIPOS>MOLECULE
MolPort-007-713-555 ChemDiv-E002-0466 MCULE-7840637079 PubChem-22509996 ZINC000006768194
 30 32 0 0 0
SMALL
GASTEIGER

@<TRIPOS>ATOM
      1 C           8.1696   41.9132    9.2191 C.2     1  UNL1        0.3096
      2 N           9.1531   42.6298    8.4663 N.am    1  UNL1       -0.2468
      3 N           6.7833   42.1850    8.9763 N.am    1  UNL1       -0.2678
      4 O           8.5196   41.0601   10.0785 O.2     1  UNL1       -0.2521
      5 H           8.8307   43.2852    7.8062 H       1  UNL1        0.1584
      6 H           6.5854   42.8633    8.2908 H       1  UNL1        0.1564
      7 C           5.6490   41.5800    9.6194 C.ar    1  UNL1        0.0578
      8 C           4.5097   41.2342    8.8745 C.ar    1  UNL1        0.0149
      9 C           3.4025   40.6467    9.4861 C.ar    1  UNL1        0.0013
     10 C           3.4182   40.3954   10.8561 C.ar    1  UNL1        0.0003
     11 C           4.5413   40.7322   11.6118 C.ar    1  UNL1        0.0077
     12 C           5.6662   41.3247   11.0144 C.ar    1  UNL1        0.0891
     13 C           6.8252   41.6560   11.8809 C.2     1  UNL1        0.3425
     14 O           7.1920   42.8588   11.9965 O.2     1  UNL1       -0.2448
     15 C           8.6830   40.9298   13.3272 C.3     1  UNL1        0.2560
     16 O           7.5145   40.6548   12.5692 O.3     1  UNL1       -0.4413
     17 C          12.8529   41.7481    8.7055 C.ar    1  UNL1        0.1905
     18 C          10.5685   42.4678    8.5983 C.ar    1  UNL1        0.1904
     19 N          12.6910   43.0627    8.9849 N.ar    1  UNL1       -0.1239
     20 N          11.4214   43.4614    8.9320 N.ar    1  UNL1       -0.1240
     21 S          11.3729   41.0140    8.3421 S.2     1  UNL1       -0.0151
     22 N          14.1433   41.1108    8.6436 N.pl3   1  UNL1       -0.2659
     23 C          14.5740   40.1302    9.6095 C.ar    1  UNL1        0.0531
     24 C          15.7952   39.4575    9.4369 C.ar    1  UNL1        0.0149
     25 C          16.2337   38.5262   10.3825 C.ar    1  UNL1        0.0013
     26 C          15.4598   38.2633   11.5152 C.ar    1  UNL1        0.0001
     27 C          14.2492   38.9339   11.7042 C.ar    1  UNL1        0.0013
     28 C          13.8112   39.8652   10.7586 C.ar    1  UNL1        0.0149
     29 C          15.0585   41.5042    7.5759 C.3     1  UNL1        0.0975
     30 C          14.3869   42.5088    6.6581 C.3     1  UNL1        0.0236
@<TRIPOS>BOND
     1    17    22    1
     2    17    21   ar
     3    29    22    1
     4    29    30    1
     5    24    25   ar
     6    26    27   ar
     7    28    23   ar
     8    18     2    1
     9    18    21   ar
    10     1     3   am
    11     8     9   ar
    12    10    11   ar
    13    12    13    1
    14    12     7   ar
    15    13    16    1
    16    15    16    1
    17    22    23    1
    18    19    20   ar
    19     2     1   am
    20     3     7    1
    21    17    19   ar
    22    23    24   ar
    23    25    26   ar
    24    27    28   ar
    25    18    20   ar
    26     1     4    2
    27     7     8   ar
    28     9    10   ar
    29    11    12   ar
    30    13    14    2
    31     2     5    1
    32     3     6    1
@<TRIPOS>MOLECULE
MolPort-007-713-555 ChemDiv-E002-0466 MCULE-7840637079 PubChem-22509996 ZINC000006768194
 30 32 0 0 0
SMALL
GASTEIGER

@<TRIPOS>ATOM
      1 C           8.3153   41.6373    8.7588 C.2     1  UNL1        0.3096
      2 N           9.3028   42.3107    7.9721 N.am    1  UNL1       -0.2468
      3 N           6.9976   42.1960    8.8364 N.am    1  UNL1       -0.2678
      4 O           8.6027   40.5732    9.3705 O.2     1  UNL1       -0.2521
      5 H           9.0305   43.1376    7.5124 H       1  UNL1        0.1584
      6 H           6.8465   43.0283    8.3326 H       1  UNL1        0.1564
      7 C           5.8717   41.6799    9.5657 C.ar    1  UNL1        0.0578
      8 C           4.6808   41.3522    8.8971 C.ar    1  UNL1        0.0149
      9 C           3.5810   40.8505    9.5928 C.ar    1  UNL1        0.0013
     10 C           3.6560   40.6685   10.9717 C.ar    1  UNL1        0.0003
     11 C           4.8307   40.9885   11.6523 C.ar    1  UNL1        0.0077
     12 C           5.9492   41.4951   10.9697 C.ar    1  UNL1        0.0891
     13 C           7.1653   41.8135   11.7593 C.2     1  UNL1        0.3425
     14 O           7.7762   42.8988   11.5505 O.2     1  UNL1       -0.2448
     15 C           8.9201   41.0836   13.3272 C.3     1  UNL1        0.2560
     16 O           7.6418   40.9286   12.7294 O.3     1  UNL1       -0.4413
     17 C          12.9989   41.3842    7.9145 C.ar    1  UNL1        0.1905
     18 C          10.6551   41.8756    7.8015 C.ar    1  UNL1        0.1904
     19 N          12.3869   40.8347    6.8393 N.ar    1  UNL1       -0.1239
     20 N          11.0862   41.1130    6.7726 N.ar    1  UNL1       -0.1240
     21 S          11.8994   42.2436    8.8703 S.2     1  UNL1       -0.0151
     22 N          14.3891   41.1672    8.2236 N.pl3   1  UNL1       -0.2659
     23 C          15.4172   42.1248    7.8981 C.ar    1  UNL1        0.0531
     24 C          16.6733   42.0526    8.5232 C.ar    1  UNL1        0.0149
     25 C          17.6848   42.9591    8.1933 C.ar    1  UNL1        0.0013
     26 C          17.4540   43.9428    7.2288 C.ar    1  UNL1        0.0001
     27 C          16.2132   44.0180    6.5918 C.ar    1  UNL1        0.0013
     28 C          15.2022   43.1112    6.9218 C.ar    1  UNL1        0.0149
     29 C          14.7676   39.9096    8.8621 C.3     1  UNL1        0.0975
     30 C          14.1347   39.8129   10.2378 C.3     1  UNL1        0.0236
@<TRIPOS>BOND
     1    17    22    1
     2    17    21   ar
     3    29    22    1
     4    29    30    1
     5    24    25   ar
     6    26    27   ar
     7    28    23   ar
     8    18     2    1
     9    18    21   ar
    10     1     3   am
    11     8     9   ar
    12    10    11   ar
    13    12    13    1
    14    12     7   ar
    15    13    16    1
    16    15    16    1
    17    22    23    1
    18    19    20   ar
    19     2     1   am
    20     3     7    1
    21    17    19   ar
    22    23    24   ar
    23    25    26   ar
    24    27    28   ar
    25    18    20   ar
    26     1     4    2
    27     7     8   ar
    28     9    10   ar
    29    11    12   ar
    30    13    14    2
    31     2     5    1
    32     3     6    1
@<TRIPOS>MOLECULE
MolPort-007-713-555 ChemDiv-E002-0466 MCULE-7840637079 PubChem-22509996 ZINC000006768194
 30 32 0 0 0
SMALL
GASTEIGER

@<TRIPOS>ATOM
      1 C          13.1987   41.8765    7.0960 C.2     1  UNL1        0.3096
      2 N          12.2188   40.8407    6.9766 N.am    1  UNL1       -0.2468
      3 N          14.5585   41.5110    7.3645 N.am    1  UNL1       -0.2678
      4 O          12.8685   43.0862    6.9667 O.2     1  UNL1       -0.2521
      5 H          12.5252   39.9113    7.0847 H       1  UNL1        0.1584
      6 H          14.7418   40.5478    7.4528 H       1  UNL1        0.1564
      7 C          15.6848   42.3904    7.5197 C.ar    1  UNL1        0.0578
      8 C          15.7781   43.5676    6.7593 C.ar    1  UNL1        0.0149
      9 C          16.8655   44.4295    6.9002 C.ar    1  UNL1        0.0013
     10 C          17.8790   44.1261    7.8062 C.ar    1  UNL1        0.0003
     11 C          17.8030   42.9613    8.5698 C.ar    1  UNL1        0.0077
     12 C          16.7161   42.0804    8.4426 C.ar    1  UNL1        0.0891
     13 C          16.7023   40.8600    9.2876 C.2     1  UNL1        0.3425
     14 O          17.7865   40.2610    9.5334 O.2     1  UNL1       -0.2448
     15 C          15.3934   39.0428   10.3149 C.3     1  UNL1        0.2560
     16 O          15.5062   40.3664    9.8138 O.3     1  UNL1       -0.4413
     17 C           8.4347   41.1813    6.6805 C.ar    1  UNL1        0.1905
     18 C          10.8284   41.0506    6.7125 C.ar    1  UNL1        0.1904
     19 N           9.0174   41.7496    5.5988 N.ar    1  UNL1       -0.1239
     20 N          10.3469   41.6713    5.6130 N.ar    1  UNL1       -0.1240
     21 S           9.5947   40.5635    7.7454 S.2     1  UNL1       -0.0151
     22 N           7.0123   41.2006    6.9080 N.pl3   1  UNL1       -0.2659
     23 C           6.3367   42.3206    7.5155 C.ar    1  UNL1        0.0531
     24 C           6.3998   43.5913    6.9199 C.ar    1  UNL1        0.0149
     25 C           5.7249   44.6764    7.4863 C.ar    1  UNL1        0.0013
     26 C           4.9727   44.5009    8.6502 C.ar    1  UNL1        0.0001
     27 C           4.8926   43.2400    9.2457 C.ar    1  UNL1        0.0013
     28 C           5.5674   42.1553    8.6789 C.ar    1  UNL1        0.0149
     29 C           6.2363   40.0208    6.5361 C.3     1  UNL1        0.0975
     30 C           7.1659   38.8964    6.1188 C.3     1  UNL1        0.0236
@<TRIPOS>BOND
     1    17    22    1
     2    17    21   ar
     3    29    22    1
     4    29    30    1
     5    24    25   ar
     6    26    27   ar
     7    28    23   ar
     8    18     2    1
     9    18    21   ar
    10     1     3   am
    11     8     9   ar
    12    10    11   ar
    13    12    13    1
    14    12     7   ar
    15    13    16    1
    16    15    16    1
    17    22    23    1
    18    19    20   ar
    19     2     1   am
    20     3     7    1
    21    17    19   ar
    22    23    24   ar
    23    25    26   ar
    24    27    28   ar
    25    18    20   ar
    26     1     4    2
    27     7     8   ar
    28     9    10   ar
    29    11    12   ar
    30    13    14    2
    31     2     5    1
    32     3     6    1
@<TRIPOS>MOLECULE
MolPort-007-713-555 ChemDiv-E002-0466 MCULE-7840637079 PubChem-22509996 ZINC000006768194
 30 32 0 0 0
SMALL
GASTEIGER

@<TRIPOS>ATOM
      1 C          12.3352   41.9321    7.8615 C.2     1  UNL1        0.3096
      2 N          11.1801   41.1237    7.6168 N.am    1  UNL1       -0.2468
      3 N          13.5924   41.5227    7.3080 N.am    1  UNL1       -0.2678
      4 O          12.2447   42.9834    8.5511 O.2     1  UNL1       -0.2521
      5 H          11.3007   40.3127    7.0720 H       1  UNL1        0.1584
      6 H          13.5867   40.6914    6.7805 H       1  UNL1        0.1564
      7 C          14.8605   42.1874    7.4351 C.ar    1  UNL1        0.0578
      8 C          15.1697   43.2910    6.6233 C.ar    1  UNL1        0.0149
      9 C          16.3963   43.9449    6.7366 C.ar    1  UNL1        0.0013
     10 C          17.3350   43.5037    7.6663 C.ar    1  UNL1        0.0003
     11 C          17.0451   42.4092    8.4810 C.ar    1  UNL1        0.0077
     12 C          15.8155   41.7371    8.3821 C.ar    1  UNL1        0.0891
     13 C          15.5764   40.5805    9.2814 C.2     1  UNL1        0.3425
     14 O          16.5178   39.7738    9.5214 O.2     1  UNL1       -0.2448
     15 C          14.1480   39.5225   10.9876 C.3     1  UNL1        0.2560
     16 O          14.3242   40.3735    9.8649 O.3     1  UNL1       -0.4413
     17 C           7.5920   42.0633    8.4921 C.ar    1  UNL1        0.1905
     18 C           9.8635   41.4026    8.1025 C.ar    1  UNL1        0.1904
     19 N           8.1556   41.4316    9.5485 N.ar    1  UNL1       -0.1239
     20 N           9.4196   41.0704    9.3348 N.ar    1  UNL1       -0.1240
     21 S           8.6752   42.1744    7.1977 S.2     1  UNL1       -0.0151
     22 N           6.2160   42.4895    8.4739 N.pl3   1  UNL1       -0.2659
     23 C           5.2597   42.0747    9.4706 C.ar    1  UNL1        0.0531
     24 C           3.8910   42.3324    9.2867 C.ar    1  UNL1        0.0149
     25 C           2.9543   41.9092   10.2339 C.ar    1  UNL1        0.0013
     26 C           3.3752   41.2163   11.3714 C.ar    1  UNL1        0.0001
     27 C           4.7320   40.9437   11.5602 C.ar    1  UNL1        0.0013
     28 C           5.6683   41.3669   10.6128 C.ar    1  UNL1        0.0149
     29 C           5.7727   43.3491    7.3798 C.3     1  UNL1        0.0975
     30 C           5.6636   44.7853    7.8572 C.3     1  UNL1        0.0236
@<TRIPOS>BOND
     1    17    22    1
     2    17    21   ar
     3    29    22    1
     4    29    30    1
     5    24    25   ar
     6    26    27   ar
     7    28    23   ar
     8    18     2    1
     9    18    21   ar
    10     1     3   am
    11     8     9   ar
    12    10    11   ar
    13    12    13    1
    14    12     7   ar
    15    13    16    1
    16    15    16    1
    17    22    23    1
    18    19    20   ar
    19     2     1   am
    20     3     7    1
    21    17    19   ar
    22    23    24   ar
    23    25    26   ar
    24    27    28   ar
    25    18    20   ar
    26     1     4    2
    27     7     8   ar
    28     9    10   ar
    29    11    12   ar
    30    13    14    2
    31     2     5    1
    32     3     6    1
