@<TRIPOS>MOLECULE
MolPort-003-134-642 4517711 CSSS03437056321 MCULE-7624361103 PubChem-7267002 ZINC000004517711
 26 28 0 0 0
SMALL
GASTEIGER

@<TRIPOS>ATOM
      1 C          13.5923   38.7443    8.8480 C.2     1  UNL1        0.2522
      2 O          13.0817   39.2002    7.7892 O.2     1  UNL1       -0.2697
      3 N          14.6837   39.4267    9.4776 N.am    1  UNL1       -0.2606
      4 H          14.9676   39.0889   10.3577 H       1  UNL1        0.1571
      5 C          15.4781   43.3504    6.7347 C.ar    1  UNL1        0.1566
      6 C          15.7363   42.3599    7.6874 C.ar    1  UNL1        0.1230
      7 C          15.4035   40.5501    8.9570 C.ar    1  UNL1        0.1659
      8 C          16.9328   42.3546    8.3889 C.ar    1  UNL1        0.0527
      9 C          17.9185   43.3158    8.1863 C.ar    1  UNL1        0.0083
     10 C          17.6731   44.3164    7.2344 C.ar    1  UNL1        0.0037
     11 C          16.4638   44.3357    6.5142 C.ar    1  UNL1        0.0385
     12 N          14.8784   41.3555    8.0031 N.ar    1  UNL1       -0.2208
     13 S          16.9468   41.0572    9.4514 S.2     1  UNL1       -0.0513
     14 O          14.2643   43.3476    6.0361 O.3     1  UNL1       -0.4739
     15 C          12.2522   42.0125    6.0425 C.3     1  UNL1        0.0512
     16 C          12.9994   43.1767    6.6667 C.3     1  UNL1        0.2056
     17 C          12.9996   37.5439    9.4757 C.ar    1  UNL1        0.0708
     18 C          13.7002   36.3209    9.6583 C.ar    1  UNL1        0.1101
     19 C          13.0566   35.2531   10.2984 C.ar    1  UNL1        0.0185
     20 C          11.7402   35.3711   10.7439 C.ar    1  UNL1        0.0013
     21 C          11.0442   36.5615   10.5466 C.ar    1  UNL1        0.0002
     22 C          11.6699   37.6368    9.9156 C.ar    1  UNL1        0.0058
     23 C          16.5316   36.8677   10.0706 C.3     1  UNL1        0.1816
     24 O          15.4554   36.5612    7.6447 O.2     1  UNL1       -0.1686
     25 O          15.6476   34.5670    9.0727 O.2     1  UNL1       -0.1686
     26 S          15.3353   36.0370    9.0477 S.O2    1  UNL1        0.0106
@<TRIPOS>BOND
     1    15    16    1
     2    16    14    1
     3     5    14    1
     4     6    12   ar
     5     7     3    1
     6     7    13   ar
     7     1    17    1
     8    18    19   ar
     9    20    21   ar
    10    22    17   ar
    11     8    13   ar
    12     8     6   ar
    13     9    10   ar
    14    11     5   ar
    15     3     1   am
    16    26    18    1
    17    26    23    1
    18     5     6   ar
    19     7    12   ar
    20     1     2    2
    21    17    18   ar
    22    19    20   ar
    23    21    22   ar
    24     8     9   ar
    25    10    11   ar
    26    26    24    2
    27    26    25    2
    28     3     4    1
@<TRIPOS>MOLECULE
MolPort-003-134-642 4517711 CSSS03437056321 MCULE-7624361103 PubChem-7267002 ZINC000004517711
 26 28 0 0 0
SMALL
GASTEIGER

@<TRIPOS>ATOM
      1 C          10.9138   41.9358    7.3456 C.2     1  UNL1        0.2522
      2 O          11.3234   41.7124    8.5169 O.2     1  UNL1       -0.2697
      3 N          11.8290   42.3567    6.3265 N.am    1  UNL1       -0.2606
      4 H          11.4759   42.4078    5.4089 H       1  UNL1        0.1571
      5 C          16.3361   42.0363    8.0968 C.ar    1  UNL1        0.1566
      6 C          15.2748   42.5314    7.3325 C.ar    1  UNL1        0.1230
      7 C          13.2050   42.7106    6.5069 C.ar    1  UNL1        0.1659
      8 C          15.4644   43.6120    6.4838 C.ar    1  UNL1        0.0527
      9 C          16.6958   44.2464    6.3504 C.ar    1  UNL1        0.0083
     10 C          17.7700   43.7600    7.1100 C.ar    1  UNL1        0.0037
     11 C          17.5939   42.6642    7.9758 C.ar    1  UNL1        0.0385
     12 N          14.0154   42.0234    7.3468 N.ar    1  UNL1       -0.2208
     13 S          14.0205   43.9679    5.7085 S.2     1  UNL1       -0.0513
     14 O          16.1332   40.9417    8.9466 O.3     1  UNL1       -0.4739
     15 C          14.9487   39.4368   10.4174 C.3     1  UNL1        0.0512
     16 C          14.8435   40.4450    9.2880 C.3     1  UNL1        0.2056
     17 C           9.4951   41.6803    7.0168 C.ar    1  UNL1        0.0708
     18 C           9.0514   40.5771    6.2383 C.ar    1  UNL1        0.1101
     19 C           7.6785   40.4061    6.0146 C.ar    1  UNL1        0.0185
     20 C           6.7487   41.3075    6.5326 C.ar    1  UNL1        0.0013
     21 C           7.1827   42.4016    7.2776 C.ar    1  UNL1        0.0002
     22 C           8.5450   42.5857    7.5146 C.ar    1  UNL1        0.0058
     23 C          10.6566   40.0459    3.8661 C.3     1  UNL1        0.1816
     24 O           9.4632   38.1106    5.2688 O.2     1  UNL1       -0.1686
     25 O          11.3857   39.2509    6.2966 O.2     1  UNL1       -0.1686
     26 S          10.1513   39.4327    5.4587 S.O2    1  UNL1        0.0106
@<TRIPOS>BOND
     1    15    16    1
     2    16    14    1
     3     5    14    1
     4     6    12   ar
     5     7     3    1
     6     7    13   ar
     7     1    17    1
     8    18    19   ar
     9    20    21   ar
    10    22    17   ar
    11     8    13   ar
    12     8     6   ar
    13     9    10   ar
    14    11     5   ar
    15     3     1   am
    16    26    18    1
    17    26    23    1
    18     5     6   ar
    19     7    12   ar
    20     1     2    2
    21    17    18   ar
    22    19    20   ar
    23    21    22   ar
    24     8     9   ar
    25    10    11   ar
    26    26    24    2
    27    26    25    2
    28     3     4    1
@<TRIPOS>MOLECULE
MolPort-003-134-642 4517711 CSSS03437056321 MCULE-7624361103 PubChem-7267002 ZINC000004517711
 26 28 0 0 0
SMALL
GASTEIGER

@<TRIPOS>ATOM
      1 C          11.2697   41.5567    7.3716 C.2     1  UNL1        0.2522
      2 O          11.1936   42.5214    8.1797 O.2     1  UNL1       -0.2697
      3 N          12.5279   41.2004    6.7858 N.am    1  UNL1       -0.2606
      4 H          12.5488   40.3735    6.2519 H       1  UNL1        0.1571
      5 C          16.8627   42.4017    8.6072 C.ar    1  UNL1        0.1566
      6 C          15.7564   42.4486    7.7532 C.ar    1  UNL1        0.1230
      7 C          13.7583   41.9249    6.8979 C.ar    1  UNL1        0.1659
      8 C          15.7163   43.3555    6.7044 C.ar    1  UNL1        0.0527
      9 C          16.7544   44.2472    6.4517 C.ar    1  UNL1        0.0083
     10 C          17.8713   44.2110    7.2994 C.ar    1  UNL1        0.0037
     11 C          17.9272   43.2965    8.3681 C.ar    1  UNL1        0.0385
     12 N          14.6663   41.6462    7.8636 N.ar    1  UNL1       -0.2208
     13 S          14.2760   43.1699    5.8658 S.2     1  UNL1       -0.0513
     14 O          16.8933   41.4784    9.6599 O.3     1  UNL1       -0.4739
     15 C          18.1741   39.4814   10.1099 C.3     1  UNL1        0.0512
     16 C          16.9333   40.0690    9.4632 C.3     1  UNL1        0.2056
     17 C          10.0626   40.7476    7.0988 C.ar    1  UNL1        0.0708
     18 C           9.7993   39.4915    7.7096 C.ar    1  UNL1        0.1101
     19 C           8.6058   38.8214    7.4085 C.ar    1  UNL1        0.0185
     20 C           7.6849   39.3627    6.5118 C.ar    1  UNL1        0.0013
     21 C           7.9507   40.5833    5.8953 C.ar    1  UNL1        0.0002
     22 C           9.1313   41.2671    6.1861 C.ar    1  UNL1        0.0058
     23 C          11.1332   39.5938   10.2973 C.3     1  UNL1        0.1816
     24 O          12.2826   38.5639    8.1167 O.2     1  UNL1       -0.1686
     25 O          10.4306   37.3065    9.1374 O.2     1  UNL1       -0.1686
     26 S          10.9415   38.6753    8.7849 S.O2    1  UNL1        0.0106
@<TRIPOS>BOND
     1    15    16    1
     2    16    14    1
     3     5    14    1
     4     6    12   ar
     5     7     3    1
     6     7    13   ar
     7     1    17    1
     8    18    19   ar
     9    20    21   ar
    10    22    17   ar
    11     8    13   ar
    12     8     6   ar
    13     9    10   ar
    14    11     5   ar
    15     3     1   am
    16    26    18    1
    17    26    23    1
    18     5     6   ar
    19     7    12   ar
    20     1     2    2
    21    17    18   ar
    22    19    20   ar
    23    21    22   ar
    24     8     9   ar
    25    10    11   ar
    26    26    24    2
    27    26    25    2
    28     3     4    1
@<TRIPOS>MOLECULE
MolPort-003-134-642 4517711 CSSS03437056321 MCULE-7624361103 PubChem-7267002 ZINC000004517711
 26 28 0 0 0
SMALL
GASTEIGER

@<TRIPOS>ATOM
      1 C          11.6008   41.1519    7.6462 C.2     1  UNL1        0.2522
      2 O          11.9502   41.1727    8.8574 O.2     1  UNL1       -0.2697
      3 N          12.4994   41.6035    6.6255 N.am    1  UNL1       -0.2606
      4 H          12.2173   41.4604    5.6932 H       1  UNL1        0.1571
      5 C          17.0625   42.0976    8.2016 C.ar    1  UNL1        0.1566
      6 C          15.8699   42.4359    7.5547 C.ar    1  UNL1        0.1230
      7 C          13.7661   42.2417    6.8236 C.ar    1  UNL1        0.1659
      8 C          15.7524   43.6448    6.8848 C.ar    1  UNL1        0.0527
      9 C          16.7945   44.5650    6.8218 C.ar    1  UNL1        0.0083
     10 C          17.9975   44.2387    7.4652 C.ar    1  UNL1        0.0037
     11 C          18.1325   43.0158    8.1492 C.ar    1  UNL1        0.0385
     12 N          14.7641   41.6483    7.5211 N.ar    1  UNL1       -0.2208
     13 S          14.2194   43.7607    6.2149 S.2     1  UNL1       -0.0513
     14 O          17.1703   40.8720    8.8708 O.3     1  UNL1       -0.4739
     15 C          16.8513   39.4301   10.7813 C.3     1  UNL1        0.0512
     16 C          16.2106   40.4093    9.8151 C.3     1  UNL1        0.2056
     17 C          10.2856   40.5808    7.2848 C.ar    1  UNL1        0.0708
     18 C           9.0650   40.9505    7.9121 C.ar    1  UNL1        0.1101
     19 C           7.8667   40.3745    7.4691 C.ar    1  UNL1        0.0185
     20 C           7.8589   39.4387    6.4350 C.ar    1  UNL1        0.0013
     21 C           9.0564   39.0586    5.8331 C.ar    1  UNL1        0.0002
     22 C          10.2586   39.6246    6.2576 C.ar    1  UNL1        0.0058
     23 C           9.5091   41.2317   10.7774 C.3     1  UNL1        0.1816
     24 O           7.5613   42.5216    9.4816 O.2     1  UNL1       -0.1686
     25 O           9.8794   43.2339    9.0671 O.2     1  UNL1       -0.1686
     26 S           8.9763   42.0536    9.2913 S.O2    1  UNL1        0.0106
@<TRIPOS>BOND
     1    15    16    1
     2    16    14    1
     3     5    14    1
     4     6    12   ar
     5     7     3    1
     6     7    13   ar
     7     1    17    1
     8    18    19   ar
     9    20    21   ar
    10    22    17   ar
    11     8    13   ar
    12     8     6   ar
    13     9    10   ar
    14    11     5   ar
    15     3     1   am
    16    26    18    1
    17    26    23    1
    18     5     6   ar
    19     7    12   ar
    20     1     2    2
    21    17    18   ar
    22    19    20   ar
    23    21    22   ar
    24     8     9   ar
    25    10    11   ar
    26    26    24    2
    27    26    25    2
    28     3     4    1
@<TRIPOS>MOLECULE
MolPort-003-134-642 4517711 CSSS03437056321 MCULE-7624361103 PubChem-7267002 ZINC000004517711
 26 28 0 0 0
SMALL
GASTEIGER

@<TRIPOS>ATOM
      1 C          11.3329   40.9116    7.7964 C.2     1  UNL1        0.2522
      2 O          11.1447   41.9187    8.5313 O.2     1  UNL1       -0.2697
      3 N          12.6088   40.6915    7.1826 N.am    1  UNL1       -0.2606
      4 H          12.7316   39.8350    6.7129 H       1  UNL1        0.1571
      5 C          16.8857   42.5153    8.5727 C.ar    1  UNL1        0.1566
      6 C          15.7010   42.4016    7.8384 C.ar    1  UNL1        0.1230
      7 C          13.7235   41.5907    7.1827 C.ar    1  UNL1        0.1659
      8 C          15.4174   43.2984    6.8190 C.ar    1  UNL1        0.0527
      9 C          16.2800   44.3364    6.4797 C.ar    1  UNL1        0.0083
     10 C          17.4729   44.4623    7.2068 C.ar    1  UNL1        0.0037
     11 C          17.7752   43.5602    8.2443 C.ar    1  UNL1        0.0385
     12 N          14.7591   41.4450    8.0434 N.ar    1  UNL1       -0.2208
     13 S          13.9402   42.9050    6.1295 S.2     1  UNL1       -0.0513
     14 O          17.1628   41.6009    9.5966 O.3     1  UNL1       -0.4739
     15 C          16.9972   39.2997   10.3095 C.3     1  UNL1        0.0512
     16 C          17.6520   40.2852    9.3590 C.3     1  UNL1        0.2056
     17 C          10.2479   39.9190    7.6417 C.ar    1  UNL1        0.0708
     18 C           9.0229   40.1863    6.9724 C.ar    1  UNL1        0.1101
     19 C           8.0734   39.1628    6.8495 C.ar    1  UNL1        0.0185
     20 C           8.3092   37.8965    7.3844 C.ar    1  UNL1        0.0013
     21 C           9.4999   37.6384    8.0597 C.ar    1  UNL1        0.0002
     22 C          10.4588   38.6434    8.1880 C.ar    1  UNL1        0.0058
     23 C           8.3231   42.9238    7.6811 C.3     1  UNL1        0.1816
     24 O           7.3226   41.6834    5.5369 O.2     1  UNL1       -0.1686
     25 O           9.6988   42.3191    5.4873 O.2     1  UNL1       -0.1686
     26 S           8.5869   41.7802    6.3430 S.O2    1  UNL1        0.0106
@<TRIPOS>BOND
     1    15    16    1
     2    16    14    1
     3     5    14    1
     4     6    12   ar
     5     7     3    1
     6     7    13   ar
     7     1    17    1
     8    18    19   ar
     9    20    21   ar
    10    22    17   ar
    11     8    13   ar
    12     8     6   ar
    13     9    10   ar
    14    11     5   ar
    15     3     1   am
    16    26    18    1
    17    26    23    1
    18     5     6   ar
    19     7    12   ar
    20     1     2    2
    21    17    18   ar
    22    19    20   ar
    23    21    22   ar
    24     8     9   ar
    25    10    11   ar
    26    26    24    2
    27    26    25    2
    28     3     4    1
@<TRIPOS>MOLECULE
MolPort-003-134-642 4517711 CSSS03437056321 MCULE-7624361103 PubChem-7267002 ZINC000004517711
 26 28 0 0 0
SMALL
GASTEIGER

@<TRIPOS>ATOM
      1 C          12.6970   38.8612    8.3034 C.2     1  UNL1        0.2522
      2 O          12.2582   38.8221    7.1221 O.2     1  UNL1       -0.2697
      3 N          13.3559   40.0358    8.7925 N.am    1  UNL1       -0.2606
      4 H          13.5770   40.0518    9.7517 H       1  UNL1        0.1571
      5 C          16.3220   43.3108    6.7856 C.ar    1  UNL1        0.1566
      6 C          15.1181   42.6768    7.1082 C.ar    1  UNL1        0.1230
      7 C          13.7256   41.1891    8.0280 C.ar    1  UNL1        0.1659
      8 C          13.9145   43.1647    6.6211 C.ar    1  UNL1        0.0527
      9 C          13.8436   44.2872    5.8017 C.ar    1  UNL1        0.0083
     10 C          15.0433   44.9331    5.4686 C.ar    1  UNL1        0.0037
     11 C          16.2730   44.4502    5.9548 C.ar    1  UNL1        0.0385
     12 N          15.0176   41.5724    7.8922 N.ar    1  UNL1       -0.2208
     13 S          12.6601   42.1990    7.1746 S.2     1  UNL1       -0.0513
     14 O          17.5312   42.8058    7.2798 O.3     1  UNL1       -0.4739
     15 C          17.5573   44.1162    9.3079 C.3     1  UNL1        0.0512
     16 C          17.8578   42.7747    8.6651 C.3     1  UNL1        0.2056
     17 C          12.4518   37.7129    9.2021 C.ar    1  UNL1        0.0708
     18 C          13.4703   36.8269    9.6468 C.ar    1  UNL1        0.1101
     19 C          13.1371   35.7894   10.5281 C.ar    1  UNL1        0.0185
     20 C          11.8236   35.6089   10.9611 C.ar    1  UNL1        0.0013
     21 C          10.8199   36.4628   10.5095 C.ar    1  UNL1        0.0002
     22 C          11.1333   37.5040    9.6357 C.ar    1  UNL1        0.0058
     23 C          15.2915   36.1884    7.4648 C.3     1  UNL1        0.1816
     24 O          16.0393   36.1587   10.0293 O.2     1  UNL1       -0.1686
     25 O          15.5875   38.3440    8.9934 O.2     1  UNL1       -0.1686
     26 S          15.1448   36.9106    9.0849 S.O2    1  UNL1        0.0106
@<TRIPOS>BOND
     1    15    16    1
     2    16    14    1
     3     5    14    1
     4     6    12   ar
     5     7     3    1
     6     7    13   ar
     7     1    17    1
     8    18    19   ar
     9    20    21   ar
    10    22    17   ar
    11     8    13   ar
    12     8     6   ar
    13     9    10   ar
    14    11     5   ar
    15     3     1   am
    16    26    18    1
    17    26    23    1
    18     5     6   ar
    19     7    12   ar
    20     1     2    2
    21    17    18   ar
    22    19    20   ar
    23    21    22   ar
    24     8     9   ar
    25    10    11   ar
    26    26    24    2
    27    26    25    2
    28     3     4    1
@<TRIPOS>MOLECULE
MolPort-003-134-642 4517711 CSSS03437056321 MCULE-7624361103 PubChem-7267002 ZINC000004517711
 26 28 0 0 0
SMALL
GASTEIGER

@<TRIPOS>ATOM
      1 C          13.6125   41.9714    7.3601 C.2     1  UNL1        0.2522
      2 O          13.3004   41.6649    6.1777 O.2     1  UNL1       -0.2697
      3 N          12.6095   42.0299    8.3817 N.am    1  UNL1       -0.2606
      4 H          12.9255   42.1638    9.3045 H       1  UNL1        0.1571
      5 C           7.9099   42.2398    9.5733 C.ar    1  UNL1        0.1566
      6 C           9.0369   42.0296    8.7726 C.ar    1  UNL1        0.1230
      7 C          11.1940   41.9134    8.1971 C.ar    1  UNL1        0.1659
      8 C           8.8958   41.6283    7.4524 C.ar    1  UNL1        0.0527
      9 C           7.6507   41.4193    6.8671 C.ar    1  UNL1        0.0083
     10 C           6.5110   41.6274    7.6578 C.ar    1  UNL1        0.0037
     11 C           6.6373   42.0348    8.9993 C.ar    1  UNL1        0.0385
     12 N          10.3183   42.1923    9.1920 N.ar    1  UNL1       -0.2208
     13 S          10.4134   41.4632    6.7579 S.2     1  UNL1       -0.0513
     14 O           8.0652   42.6494   10.9035 O.3     1  UNL1       -0.4739
     15 C           9.1028   41.1132   12.4509 C.3     1  UNL1        0.0512
     16 C           7.8196   41.7980   12.0178 C.3     1  UNL1        0.2056
     17 C          15.0357   42.1898    7.6967 C.ar    1  UNL1        0.0708
     18 C          15.8161   43.2563    7.1737 C.ar    1  UNL1        0.1101
     19 C          17.1484   43.3947    7.5857 C.ar    1  UNL1        0.0185
     20 C          17.7183   42.4961    8.4874 C.ar    1  UNL1        0.0013
     21 C          16.9619   41.4373    8.9847 C.ar    1  UNL1        0.0002
     22 C          15.6326   41.2861    8.5896 C.ar    1  UNL1        0.0058
     23 C          15.1322   43.6020    4.3632 C.3     1  UNL1        0.1816
     24 O          16.1450   45.5705    5.8587 O.2     1  UNL1       -0.1686
     25 O          13.8360   44.8556    6.3175 O.2     1  UNL1       -0.1686
     26 S          15.2191   44.3912    5.9562 S.O2    1  UNL1        0.0106
@<TRIPOS>BOND
     1    15    16    1
     2    16    14    1
     3     5    14    1
     4     6    12   ar
     5     7     3    1
     6     7    13   ar
     7     1    17    1
     8    18    19   ar
     9    20    21   ar
    10    22    17   ar
    11     8    13   ar
    12     8     6   ar
    13     9    10   ar
    14    11     5   ar
    15     3     1   am
    16    26    18    1
    17    26    23    1
    18     5     6   ar
    19     7    12   ar
    20     1     2    2
    21    17    18   ar
    22    19    20   ar
    23    21    22   ar
    24     8     9   ar
    25    10    11   ar
    26    26    24    2
    27    26    25    2
    28     3     4    1
@<TRIPOS>MOLECULE
MolPort-003-134-642 4517711 CSSS03437056321 MCULE-7624361103 PubChem-7267002 ZINC000004517711
 26 28 0 0 0
SMALL
GASTEIGER

@<TRIPOS>ATOM
      1 C          16.1556   35.0423    5.8675 C.2     1  UNL1        0.2522
      2 O          15.1873   35.7880    5.5577 O.2     1  UNL1       -0.2697
      3 N          16.6745   35.0467    7.2032 N.am    1  UNL1       -0.2606
      4 H          17.3537   34.3665    7.4159 H       1  UNL1        0.1571
      5 C          13.7298   37.7613    9.9437 C.ar    1  UNL1        0.1566
      6 C          14.9224   37.1736    9.5103 C.ar    1  UNL1        0.1230
      7 C          16.3055   35.9398    8.2602 C.ar    1  UNL1        0.1659
      8 C          16.1093   37.4108   10.1878 C.ar    1  UNL1        0.0527
      9 C          16.1738   38.2285   11.3120 C.ar    1  UNL1        0.0083
     10 C          14.9851   38.8241   11.7591 C.ar    1  UNL1        0.0037
     11 C          13.7725   38.5932   11.0825 C.ar    1  UNL1        0.0385
     12 N          15.0268   36.3510    8.4348 N.ar    1  UNL1       -0.2208
     13 S          17.3531   36.5732    9.4371 S.2     1  UNL1       -0.0513
     14 O          12.5370   37.5104    9.2538 O.3     1  UNL1       -0.4739
     15 C          11.6986   35.8009   10.7390 C.3     1  UNL1        0.0512
     16 C          11.3623   37.0063    9.8804 C.3     1  UNL1        0.2056
     17 C          16.6956   34.1054    4.8591 C.ar    1  UNL1        0.0708
     18 C          17.7044   34.4517    3.9198 C.ar    1  UNL1        0.1101
     19 C          18.1728   33.4767    3.0286 C.ar    1  UNL1        0.0185
     20 C          17.6546   32.1819    3.0436 C.ar    1  UNL1        0.0013
     21 C          16.6505   31.8460    3.9488 C.ar    1  UNL1        0.0002
     22 C          16.1750   32.8019    4.8466 C.ar    1  UNL1        0.0058
     23 C          17.2098   37.1291    2.8838 C.3     1  UNL1        0.1816
     24 O          19.6494   36.0450    2.9862 O.2     1  UNL1       -0.1686
     25 O          18.5918   36.6881    5.1124 O.2     1  UNL1       -0.1686
     26 S          18.3591   36.0861    3.7550 S.O2    1  UNL1        0.0106
@<TRIPOS>BOND
     1    15    16    1
     2    16    14    1
     3     5    14    1
     4     6    12   ar
     5     7     3    1
     6     7    13   ar
     7     1    17    1
     8    18    19   ar
     9    20    21   ar
    10    22    17   ar
    11     8    13   ar
    12     8     6   ar
    13     9    10   ar
    14    11     5   ar
    15     3     1   am
    16    26    18    1
    17    26    23    1
    18     5     6   ar
    19     7    12   ar
    20     1     2    2
    21    17    18   ar
    22    19    20   ar
    23    21    22   ar
    24     8     9   ar
    25    10    11   ar
    26    26    24    2
    27    26    25    2
    28     3     4    1
@<TRIPOS>MOLECULE
MolPort-003-134-642 4517711 CSSS03437056321 MCULE-7624361103 PubChem-7267002 ZINC000004517711
 26 28 0 0 0
SMALL
GASTEIGER

@<TRIPOS>ATOM
      1 C          10.5472   40.2378    7.2965 C.2     1  UNL1        0.2522
      2 O          11.1208   39.1351    7.5076 O.2     1  UNL1       -0.2697
      3 N          11.3075   41.4512    7.2442 N.am    1  UNL1       -0.2606
      4 H          10.8255   42.2634    6.9663 H       1  UNL1        0.1571
      5 C          15.5835   40.3680    9.2674 C.ar    1  UNL1        0.1566
      6 C          14.6560   41.0723    8.4933 C.ar    1  UNL1        0.1230
      7 C          12.6973   41.6028    7.5553 C.ar    1  UNL1        0.1659
      8 C          15.0443   42.2000    7.7851 C.ar    1  UNL1        0.0527
      9 C          16.3507   42.6790    7.8064 C.ar    1  UNL1        0.0083
     10 C          17.2924   41.9820    8.5778 C.ar    1  UNL1        0.0037
     11 C          16.9142   40.8358    9.3022 C.ar    1  UNL1        0.0385
     12 N          13.3470   40.7338    8.3661 N.ar    1  UNL1       -0.2208
     13 S          13.7223   42.8180    6.9587 S.2     1  UNL1       -0.0513
     14 O          15.1802   39.2282    9.9744 O.3     1  UNL1       -0.4739
     15 C          13.4023   39.2091   11.6083 C.3     1  UNL1        0.0512
     16 C          14.9010   39.2318   11.3704 C.3     1  UNL1        0.2056
     17 C           9.0942   40.2541    7.0228 C.ar    1  UNL1        0.0708
     18 C           8.5118   39.7699    5.8201 C.ar    1  UNL1        0.1101
     19 C           7.1181   39.7981    5.6755 C.ar    1  UNL1        0.0185
     20 C           6.3013   40.3045    6.6863 C.ar    1  UNL1        0.0013
     21 C           6.8711   40.7996    7.8571 C.ar    1  UNL1        0.0002
     22 C           8.2563   40.7756    8.0209 C.ar    1  UNL1        0.0058
     23 C          10.9146   40.2012    4.2307 C.3     1  UNL1        0.1816
     24 O           8.6379   39.2705    3.1881 O.2     1  UNL1       -0.1686
     25 O           9.9084   37.7809    4.6779 O.2     1  UNL1       -0.1686
     26 S           9.4610   39.1964    4.4428 S.O2    1  UNL1        0.0106
@<TRIPOS>BOND
     1    15    16    1
     2    16    14    1
     3     5    14    1
     4     6    12   ar
     5     7     3    1
     6     7    13   ar
     7     1    17    1
     8    18    19   ar
     9    20    21   ar
    10    22    17   ar
    11     8    13   ar
    12     8     6   ar
    13     9    10   ar
    14    11     5   ar
    15     3     1   am
    16    26    18    1
    17    26    23    1
    18     5     6   ar
    19     7    12   ar
    20     1     2    2
    21    17    18   ar
    22    19    20   ar
    23    21    22   ar
    24     8     9   ar
    25    10    11   ar
    26    26    24    2
    27    26    25    2
    28     3     4    1
@<TRIPOS>MOLECULE
MolPort-003-134-642 4517711 CSSS03437056321 MCULE-7624361103 PubChem-7267002 ZINC000004517711
 26 28 0 0 0
SMALL
GASTEIGER

@<TRIPOS>ATOM
      1 C          13.5395   41.7889    7.1032 C.2     1  UNL1        0.2522
      2 O          13.2739   42.0169    5.8920 O.2     1  UNL1       -0.2697
      3 N          12.5621   41.1813    7.9569 N.am    1  UNL1       -0.2606
      4 H          12.8612   40.9254    8.8593 H       1  UNL1        0.1571
      5 C           7.7349   41.6275    8.1800 C.ar    1  UNL1        0.1566
      6 C           8.9743   41.1440    7.7494 C.ar    1  UNL1        0.1230
      7 C          11.1944   40.9086    7.6311 C.ar    1  UNL1        0.1659
      8 C           9.0451   40.1778    6.7567 C.ar    1  UNL1        0.0527
      9 C           7.9096   39.6507    6.1489 C.ar    1  UNL1        0.0083
     10 C           6.6593   40.1270    6.5699 C.ar    1  UNL1        0.0037
     11 C           6.5706   41.1074    7.5762 C.ar    1  UNL1        0.0385
     12 N          10.1720   41.5567    8.2388 N.ar    1  UNL1       -0.2208
     13 S          10.6530   39.8063    6.4583 S.2     1  UNL1       -0.0513
     14 O           7.6767   42.6065    9.1800 O.3     1  UNL1       -0.4739
     15 C           8.7190   44.7178    9.7155 C.3     1  UNL1        0.0512
     16 C           7.6521   44.0034    8.9065 C.3     1  UNL1        0.2056
     17 C          14.8972   42.0805    7.6110 C.ar    1  UNL1        0.0708
     18 C          15.6623   43.2109    7.2151 C.ar    1  UNL1        0.1101
     19 C          16.9265   43.4146    7.7847 C.ar    1  UNL1        0.0185
     20 C          17.4454   42.5194    8.7200 C.ar    1  UNL1        0.0013
     21 C          16.7066   41.3991    9.0934 C.ar    1  UNL1        0.0002
     22 C          15.4443   41.1822    8.5405 C.ar    1  UNL1        0.0058
     23 C          15.2246   43.5962    4.3610 C.3     1  UNL1        0.1816
     24 O          16.0254   45.5641    5.9806 O.2     1  UNL1       -0.1686
     25 O          13.7117   44.7603    6.2121 O.2     1  UNL1       -0.1686
     26 S          15.1377   44.3519    5.9701 S.O2    1  UNL1        0.0106
@<TRIPOS>BOND
     1    15    16    1
     2    16    14    1
     3     5    14    1
     4     6    12   ar
     5     7     3    1
     6     7    13   ar
     7     1    17    1
     8    18    19   ar
     9    20    21   ar
    10    22    17   ar
    11     8    13   ar
    12     8     6   ar
    13     9    10   ar
    14    11     5   ar
    15     3     1   am
    16    26    18    1
    17    26    23    1
    18     5     6   ar
    19     7    12   ar
    20     1     2    2
    21    17    18   ar
    22    19    20   ar
    23    21    22   ar
    24     8     9   ar
    25    10    11   ar
    26    26    24    2
    27    26    25    2
    28     3     4    1
