@<TRIPOS>MOLECULE
MolPort-003-082-981 4341995 CSSS03437176986 PubChem-7200178 ZINC000004341995
 29 31 0 0 0
SMALL
GASTEIGER

@<TRIPOS>ATOM
      1 C          13.8583   42.2280    7.2561 C.ar    1  UNL1        0.2119
      2 C          14.8060   41.6574    8.1024 C.ar    1  UNL1        0.0931
      3 C          15.9638   42.3823    7.9006 C.ar    1  UNL1        0.0512
      4 C          17.2196   42.3329    8.5044 C.ar    1  UNL1        0.0044
      5 C          18.1878   43.2568    8.0728 C.ar    1  UNL1        0.0002
      6 C          17.8805   44.2037    7.0720 C.ar    1  UNL1        0.0031
      7 C          16.5982   44.2454    6.4962 C.ar    1  UNL1        0.0375
      8 C          15.6588   43.3192    6.9435 C.ar    1  UNL1        0.1468
      9 O          14.4057   43.2139    6.5672 O.2     1  UNL1       -0.4476
     10 C          12.4505   41.8312    7.1152 C.2     1  UNL1        0.2856
     11 O          11.5325   42.6484    7.3935 O.2     1  UNL1       -0.2664
     12 N          12.1458   40.5055    6.6610 N.am    1  UNL1       -0.2755
     13 H          12.9161   39.9211    6.4754 H       1  UNL1        0.1554
     14 C           9.9571   39.7236    7.5336 C.ar    1  UNL1        0.1519
     15 C          10.8471   39.9318    6.4456 C.ar    1  UNL1        0.0851
     16 C          10.4443   39.5539    5.1545 C.ar    1  UNL1        0.0178
     17 C           9.1926   38.9803    4.9315 C.ar    1  UNL1        0.0015
     18 C           8.3236   38.7734    6.0005 C.ar    1  UNL1        0.0032
     19 C           8.7067   39.1425    7.2902 C.ar    1  UNL1        0.0382
     20 O          10.2473   40.0615    8.8655 O.3     1  UNL1       -0.4742
     21 C          11.5737   40.2247   10.8568 C.3     1  UNL1        0.0512
     22 C          11.1046   39.3290    9.7297 C.3     1  UNL1        0.2056
     23 C          15.5547   39.8252    9.7122 C.2     1  UNL1        0.2494
     24 O          16.7349   39.7822    9.2703 O.2     1  UNL1       -0.2698
     25 N          14.5593   40.6188    9.0603 N.am    1  UNL1       -0.2778
     26 H          13.6197   40.4356    9.2900 H       1  UNL1        0.1553
     27 C          15.1654   39.0150   10.8704 C.2     1  UNL1        0.0535
     28 C          14.4941   37.8782   10.7386 C.2     1  UNL1       -0.0211
     29 C          14.1220   37.0916   11.9431 C.3     1  UNL1        0.0309
@<TRIPOS>BOND
     1    21    22    1
     2    22    20    1
     3    14    20    1
     4    15    12    1
     5    15    16   ar
     6    10     1    1
     7     1     9   ar
     8     2    25    1
     9     2     3   ar
    10    23    27    1
    11    29    28    1
    12     4     5   ar
    13     6     7   ar
    14     8     9   ar
    15     8     3   ar
    16    17    18   ar
    17    19    14   ar
    18    12    10   am
    19    25    23   am
    20    14    15   ar
    21    10    11    2
    22     1     2   ar
    23    23    24    2
    24    27    28    2
    25     3     4   ar
    26     5     6   ar
    27     7     8   ar
    28    16    17   ar
    29    18    19   ar
    30    12    13    1
    31    25    26    1
@<TRIPOS>MOLECULE
MolPort-003-082-981 4341995 CSSS03437176986 PubChem-7200178 ZINC000004341995
 29 31 0 0 0
SMALL
GASTEIGER

@<TRIPOS>ATOM
      1 C          15.4792   40.8590    8.8591 C.ar    1  UNL1        0.2119
      2 C          14.7625   41.8120    8.1392 C.ar    1  UNL1        0.0931
      3 C          15.7018   42.7230    7.6979 C.ar    1  UNL1        0.0512
      4 C          15.6066   43.8472    6.8787 C.ar    1  UNL1        0.0044
      5 C          16.7908   44.5507    6.5962 C.ar    1  UNL1        0.0002
      6 C          18.0271   44.1144    7.1196 C.ar    1  UNL1        0.0031
      7 C          18.0968   42.9636    7.9249 C.ar    1  UNL1        0.0375
      8 C          16.9085   42.2860    8.1876 C.ar    1  UNL1        0.1468
      9 O          16.7610   41.1797    8.8783 O.2     1  UNL1       -0.4476
     10 C          14.9385   39.6604    9.5150 C.2     1  UNL1        0.2856
     11 O          14.7794   39.6412   10.7650 O.2     1  UNL1       -0.2664
     12 N          14.6012   38.5221    8.7106 N.am    1  UNL1       -0.2755
     13 H          14.7651   38.6084    7.7437 H       1  UNL1        0.1554
     14 C          14.7485   36.0533    8.9257 C.ar    1  UNL1        0.1519
     15 C          14.0520   37.2709    9.1524 C.ar    1  UNL1        0.0851
     16 C          12.8081   37.2329    9.8029 C.ar    1  UNL1        0.0178
     17 C          12.2538   36.0240   10.2233 C.ar    1  UNL1        0.0015
     18 C          12.9367   34.8312    9.9960 C.ar    1  UNL1        0.0032
     19 C          14.1737   34.8494    9.3511 C.ar    1  UNL1        0.0382
     20 O          15.9970   35.9658    8.2885 O.3     1  UNL1       -0.4742
     21 C          15.8890   35.2716    5.9955 C.3     1  UNL1        0.0512
     22 C          16.3876   34.9401    7.3863 C.3     1  UNL1        0.2056
     23 C          12.7776   41.9271    6.5406 C.2     1  UNL1        0.2494
     24 O          13.4406   42.4365    5.5968 O.2     1  UNL1       -0.2698
     25 N          13.3621   41.7561    7.8347 N.am    1  UNL1       -0.2778
     26 H          12.7475   41.5845    8.5844 H       1  UNL1        0.1553
     27 C          11.3734   41.5538    6.3447 C.2     1  UNL1        0.0535
     28 C          11.0244   40.4101    5.7698 C.2     1  UNL1       -0.0211
     29 C           9.5873   40.0759    5.5932 C.3     1  UNL1        0.0309
@<TRIPOS>BOND
     1    21    22    1
     2    22    20    1
     3    14    20    1
     4    15    12    1
     5    15    16   ar
     6    10     1    1
     7     1     9   ar
     8     2    25    1
     9     2     3   ar
    10    23    27    1
    11    29    28    1
    12     4     5   ar
    13     6     7   ar
    14     8     9   ar
    15     8     3   ar
    16    17    18   ar
    17    19    14   ar
    18    12    10   am
    19    25    23   am
    20    14    15   ar
    21    10    11    2
    22     1     2   ar
    23    23    24    2
    24    27    28    2
    25     3     4   ar
    26     5     6   ar
    27     7     8   ar
    28    16    17   ar
    29    18    19   ar
    30    12    13    1
    31    25    26    1
@<TRIPOS>MOLECULE
MolPort-003-082-981 4341995 CSSS03437176986 PubChem-7200178 ZINC000004341995
 29 31 0 0 0
SMALL
GASTEIGER

@<TRIPOS>ATOM
      1 C          15.2554   40.8929    8.7475 C.ar    1  UNL1        0.2119
      2 C          14.5932   41.6324    7.7704 C.ar    1  UNL1        0.0931
      3 C          15.5017   42.5832    7.3493 C.ar    1  UNL1        0.0512
      4 C          15.4482   43.5560    6.3520 C.ar    1  UNL1        0.0044
      5 C          16.5875   44.3576    6.1606 C.ar    1  UNL1        0.0002
      6 C          17.7423   44.1635    6.9491 C.ar    1  UNL1        0.0031
      7 C          17.7762   43.1593    7.9330 C.ar    1  UNL1        0.0375
      8 C          16.6339   42.3798    8.1001 C.ar    1  UNL1        0.1468
      9 O          16.4723   41.3749    8.9289 O.2     1  UNL1       -0.4476
     10 C          14.7253   39.7420    9.4915 C.2     1  UNL1        0.2856
     11 O          15.0066   39.5937   10.7109 O.2     1  UNL1       -0.2664
     12 N          13.8908   38.7981    8.8065 N.am    1  UNL1       -0.2755
     13 H          13.7262   38.9749    7.8521 H       1  UNL1        0.1554
     14 C          11.9558   37.6865    9.8942 C.ar    1  UNL1        0.1519
     15 C          13.2677   37.6248    9.3516 C.ar    1  UNL1        0.0851
     16 C          13.9550   36.4003    9.3695 C.ar    1  UNL1        0.0178
     17 C          13.3696   35.2557    9.9105 C.ar    1  UNL1        0.0015
     18 C          12.0850   35.3199   10.4455 C.ar    1  UNL1        0.0032
     19 C          11.3869   36.5278   10.4366 C.ar    1  UNL1        0.0382
     20 O          11.1717   38.8511    9.9310 O.3     1  UNL1       -0.4742
     21 C          10.1321   40.7753   10.9147 C.3     1  UNL1        0.0512
     22 C          11.4083   39.9733   10.7694 C.3     1  UNL1        0.2056
     23 C          12.0751   42.0149    7.6234 C.2     1  UNL1        0.2494
     24 O          12.0196   42.7106    8.6735 O.2     1  UNL1       -0.2698
     25 N          13.2867   41.3540    7.2482 N.am    1  UNL1       -0.2778
     26 H          13.2177   40.6437    6.5700 H       1  UNL1        0.1553
     27 C          10.8799   41.8221    6.7964 C.2     1  UNL1        0.0535
     28 C           9.6580   41.8396    7.3131 C.2     1  UNL1       -0.0211
     29 C           8.4769   41.6394    6.4338 C.3     1  UNL1        0.0309
@<TRIPOS>BOND
     1    21    22    1
     2    22    20    1
     3    14    20    1
     4    15    12    1
     5    15    16   ar
     6    10     1    1
     7     1     9   ar
     8     2    25    1
     9     2     3   ar
    10    23    27    1
    11    29    28    1
    12     4     5   ar
    13     6     7   ar
    14     8     9   ar
    15     8     3   ar
    16    17    18   ar
    17    19    14   ar
    18    12    10   am
    19    25    23   am
    20    14    15   ar
    21    10    11    2
    22     1     2   ar
    23    23    24    2
    24    27    28    2
    25     3     4   ar
    26     5     6   ar
    27     7     8   ar
    28    16    17   ar
    29    18    19   ar
    30    12    13    1
    31    25    26    1
@<TRIPOS>MOLECULE
MolPort-003-082-981 4341995 CSSS03437176986 PubChem-7200178 ZINC000004341995
 29 31 0 0 0
SMALL
GASTEIGER

@<TRIPOS>ATOM
      1 C          14.3199   41.1927    8.2711 C.ar    1  UNL1        0.2119
      2 C          13.5785   41.7967    7.2583 C.ar    1  UNL1        0.0931
      3 C          14.4256   42.7242    6.6849 C.ar    1  UNL1        0.0512
      4 C          14.2813   43.5778    5.5919 C.ar    1  UNL1        0.0044
      5 C          15.3767   44.3902    5.2496 C.ar    1  UNL1        0.0002
      6 C          16.5783   44.3233    5.9875 C.ar    1  UNL1        0.0031
      7 C          16.7035   43.4365    7.0717 C.ar    1  UNL1        0.0375
      8 C          15.6030   42.6431    7.3877 C.ar    1  UNL1        0.1468
      9 O          15.5250   41.7318    8.3291 O.2     1  UNL1       -0.4476
     10 C          13.8753   40.1149    9.1653 C.2     1  UNL1        0.2856
     11 O          13.8206   40.3079   10.4094 O.2     1  UNL1       -0.2664
     12 N          13.5110   38.8491    8.5981 N.am    1  UNL1       -0.2755
     13 H          13.5917   38.7710    7.6200 H       1  UNL1        0.1554
     14 C          13.9277   36.6124    9.5913 C.ar    1  UNL1        0.1519
     15 C          13.0421   37.6825    9.2918 C.ar    1  UNL1        0.0851
     16 C          11.6941   37.5771    9.6711 C.ar    1  UNL1        0.0178
     17 C          11.2199   36.4433   10.3308 C.ar    1  UNL1        0.0015
     18 C          12.0893   35.3939   10.6194 C.ar    1  UNL1        0.0032
     19 C          13.4319   35.4808   10.2502 C.ar    1  UNL1        0.0382
     20 O          15.2935   36.6042    9.2643 O.3     1  UNL1       -0.4742
     21 C          15.8167   37.6559   11.3550 C.3     1  UNL1        0.0512
     22 C          16.3096   37.3061    9.9666 C.3     1  UNL1        0.2056
     23 C          11.0356   41.8314    7.4622 C.2     1  UNL1        0.2494
     24 O          11.0363   42.3381    8.6168 O.2     1  UNL1       -0.2698
     25 N          12.2581   41.4189    6.8449 N.am    1  UNL1       -0.2778
     26 H          12.1867   40.8215    6.0656 H       1  UNL1        0.1553
     27 C           9.7733   41.6012    6.7530 C.2     1  UNL1        0.0535
     28 C           8.6227   42.0988    7.1876 C.2     1  UNL1       -0.0211
     29 C           7.3689   41.8379    6.4340 C.3     1  UNL1        0.0309
@<TRIPOS>BOND
     1    21    22    1
     2    22    20    1
     3    14    20    1
     4    15    12    1
     5    15    16   ar
     6    10     1    1
     7     1     9   ar
     8     2    25    1
     9     2     3   ar
    10    23    27    1
    11    29    28    1
    12     4     5   ar
    13     6     7   ar
    14     8     9   ar
    15     8     3   ar
    16    17    18   ar
    17    19    14   ar
    18    12    10   am
    19    25    23   am
    20    14    15   ar
    21    10    11    2
    22     1     2   ar
    23    23    24    2
    24    27    28    2
    25     3     4   ar
    26     5     6   ar
    27     7     8   ar
    28    16    17   ar
    29    18    19   ar
    30    12    13    1
    31    25    26    1
@<TRIPOS>MOLECULE
MolPort-003-082-981 4341995 CSSS03437176986 PubChem-7200178 ZINC000004341995
 29 31 0 0 0
SMALL
GASTEIGER

@<TRIPOS>ATOM
      1 C          12.7514   42.0140    6.8928 C.ar    1  UNL1        0.2119
      2 C          13.9761   41.7187    7.4871 C.ar    1  UNL1        0.0931
      3 C          14.8362   42.7166    7.0734 C.ar    1  UNL1        0.0512
      4 C          16.1641   43.0016    7.3886 C.ar    1  UNL1        0.0044
      5 C          16.7442   44.1398    6.8010 C.ar    1  UNL1        0.0002
      6 C          15.9922   44.9627    5.9350 C.ar    1  UNL1        0.0031
      7 C          14.6474   44.6637    5.6525 C.ar    1  UNL1        0.0375
      8 C          14.0985   43.5310    6.2491 C.ar    1  UNL1        0.1468
      9 O          12.8629   43.0999    6.1481 O.2     1  UNL1       -0.4476
     10 C          11.4966   41.2640    7.0414 C.2     1  UNL1        0.2856
     11 O          11.5238   40.0336    7.3122 O.2     1  UNL1       -0.2664
     12 N          10.2515   41.9547    6.8705 N.am    1  UNL1       -0.2755
     13 H          10.3116   42.9119    6.6481 H       1  UNL1        0.1554
     14 C           8.3996   40.5657    5.9736 C.ar    1  UNL1        0.1519
     15 C           8.9271   41.4117    6.9862 C.ar    1  UNL1        0.0851
     16 C           8.1279   41.7230    8.0980 C.ar    1  UNL1        0.0178
     17 C           6.8336   41.2167    8.2168 C.ar    1  UNL1        0.0015
     18 C           6.3173   40.3909    7.2207 C.ar    1  UNL1        0.0032
     19 C           7.0968   40.0709    6.1087 C.ar    1  UNL1        0.0382
     20 O           9.1030   40.1840    4.8195 O.3     1  UNL1       -0.4742
     21 C           9.5271   38.6161    3.0552 C.3     1  UNL1        0.0512
     22 C           9.5819   38.8747    4.5461 C.3     1  UNL1        0.2056
     23 C          15.4233   40.4688    9.1759 C.2     1  UNL1        0.2494
     24 O          16.4888   41.0573    8.8471 O.2     1  UNL1       -0.2698
     25 N          14.2206   40.6630    8.4267 N.am    1  UNL1       -0.2778
     26 H          13.4948   40.0132    8.5688 H       1  UNL1        0.1553
     27 C          15.4114   39.5272   10.2996 C.2     1  UNL1        0.0535
     28 C          14.3055   39.2636   10.9835 C.2     1  UNL1       -0.0211
     29 C          14.3436   38.3012   12.1150 C.3     1  UNL1        0.0309
@<TRIPOS>BOND
     1    21    22    1
     2    22    20    1
     3    14    20    1
     4    15    12    1
     5    15    16   ar
     6    10     1    1
     7     1     9   ar
     8     2    25    1
     9     2     3   ar
    10    23    27    1
    11    29    28    1
    12     4     5   ar
    13     6     7   ar
    14     8     9   ar
    15     8     3   ar
    16    17    18   ar
    17    19    14   ar
    18    12    10   am
    19    25    23   am
    20    14    15   ar
    21    10    11    2
    22     1     2   ar
    23    23    24    2
    24    27    28    2
    25     3     4   ar
    26     5     6   ar
    27     7     8   ar
    28    16    17   ar
    29    18    19   ar
    30    12    13    1
    31    25    26    1
@<TRIPOS>MOLECULE
MolPort-003-082-981 4341995 CSSS03437176986 PubChem-7200178 ZINC000004341995
 29 31 0 0 0
SMALL
GASTEIGER

@<TRIPOS>ATOM
      1 C          14.4331   39.1293    9.1384 C.ar    1  UNL1        0.2119
      2 C          13.2883   38.8835    9.8927 C.ar    1  UNL1        0.0931
      3 C          13.1739   37.5086    9.9512 C.ar    1  UNL1        0.0512
      4 C          12.2814   36.6683   10.6154 C.ar    1  UNL1        0.0044
      5 C          12.4707   35.2812   10.4843 C.ar    1  UNL1        0.0002
      6 C          13.5393   34.7722    9.7150 C.ar    1  UNL1        0.0031
      7 C          14.4381   35.6435    9.0742 C.ar    1  UNL1        0.0375
      8 C          14.2271   37.0124    9.2220 C.ar    1  UNL1        0.1468
      9 O          14.9648   37.9862    8.7422 O.2     1  UNL1       -0.4476
     10 C          15.0048   40.4417    8.8069 C.2     1  UNL1        0.2856
     11 O          15.9425   40.9165    9.5020 O.2     1  UNL1       -0.2664
     12 N          14.4761   41.1656    7.6875 N.am    1  UNL1       -0.2755
     13 H          13.7363   40.7354    7.2009 H       1  UNL1        0.1554
     14 C          14.0676   43.2011    6.3262 C.ar    1  UNL1        0.1519
     15 C          14.9011   42.4456    7.1943 C.ar    1  UNL1        0.0851
     16 C          16.1568   42.9621    7.5527 C.ar    1  UNL1        0.0178
     17 C          16.5907   44.1962    7.0687 C.ar    1  UNL1        0.0015
     18 C          15.7734   44.9330    6.2144 C.ar    1  UNL1        0.0032
     19 C          14.5226   44.4357    5.8474 C.ar    1  UNL1        0.0382
     20 O          12.7941   42.7897    5.9002 O.3     1  UNL1       -0.4742
     21 C          11.3594   40.8701    5.8102 C.3     1  UNL1        0.0512
     22 C          11.8880   42.0047    6.6624 C.3     1  UNL1        0.2056
     23 C          11.1203   40.1691   10.2874 C.2     1  UNL1        0.2494
     24 O          10.5744   39.7707    9.2229 O.2     1  UNL1       -0.2698
     25 N          12.4931   39.8739   10.5589 N.am    1  UNL1       -0.2778
     26 H          12.9320   40.3981   11.2673 H       1  UNL1        0.1553
     27 C          10.3728   40.9940   11.2415 C.2     1  UNL1        0.0535
     28 C           9.0939   41.2956   11.0582 C.2     1  UNL1       -0.0211
     29 C           8.3788   42.1354   12.0539 C.3     1  UNL1        0.0309
@<TRIPOS>BOND
     1    21    22    1
     2    22    20    1
     3    14    20    1
     4    15    12    1
     5    15    16   ar
     6    10     1    1
     7     1     9   ar
     8     2    25    1
     9     2     3   ar
    10    23    27    1
    11    29    28    1
    12     4     5   ar
    13     6     7   ar
    14     8     9   ar
    15     8     3   ar
    16    17    18   ar
    17    19    14   ar
    18    12    10   am
    19    25    23   am
    20    14    15   ar
    21    10    11    2
    22     1     2   ar
    23    23    24    2
    24    27    28    2
    25     3     4   ar
    26     5     6   ar
    27     7     8   ar
    28    16    17   ar
    29    18    19   ar
    30    12    13    1
    31    25    26    1
@<TRIPOS>MOLECULE
MolPort-003-082-981 4341995 CSSS03437176986 PubChem-7200178 ZINC000004341995
 29 31 0 0 0
SMALL
GASTEIGER

@<TRIPOS>ATOM
      1 C          14.4316   41.2398    8.3552 C.ar    1  UNL1        0.2119
      2 C          13.5773   41.9886    7.5492 C.ar    1  UNL1        0.0931
      3 C          14.3864   42.9042    6.9058 C.ar    1  UNL1        0.0512
      4 C          14.1248   43.8660    5.9310 C.ar    1  UNL1        0.0044
      5 C          15.2084   44.6277    5.4587 C.ar    1  UNL1        0.0002
      6 C          16.5116   44.4057    5.9539 C.ar    1  UNL1        0.0031
      7 C          16.7500   43.4130    6.9209 C.ar    1  UNL1        0.0375
      8 C          15.6585   42.6731    7.3699 C.ar    1  UNL1        0.1468
      9 O          15.6701   41.6841    8.2327 O.2     1  UNL1       -0.4476
     10 C          14.0612   40.1159    9.2261 C.2     1  UNL1        0.2856
     11 O          14.2677   40.1833   10.4675 O.2     1  UNL1       -0.2664
     12 N          13.4674   38.9500    8.6390 N.am    1  UNL1       -0.2755
     13 H          13.3492   38.9668    7.6618 H       1  UNL1        0.1554
     14 C          11.6397   37.4999    9.4873 C.ar    1  UNL1        0.1519
     15 C          13.0254   37.7607    9.3117 C.ar    1  UNL1        0.0851
     16 C          13.9605   36.8446    9.8199 C.ar    1  UNL1        0.0178
     17 C          13.5471   35.6932   10.4901 C.ar    1  UNL1        0.0015
     18 C          12.1881   35.4420   10.6646 C.ar    1  UNL1        0.0032
     19 C          11.2446   36.3410   10.1666 C.ar    1  UNL1        0.0382
     20 O          10.6142   38.3395    9.0229 O.3     1  UNL1       -0.4742
     21 C           8.8799   38.1563    7.3767 C.3     1  UNL1        0.0512
     22 C          10.3063   38.5802    7.6570 C.3     1  UNL1        0.2056
     23 C          11.1296   42.1259    8.2553 C.2     1  UNL1        0.2494
     24 O          11.3886   42.4540    9.4449 O.2     1  UNL1       -0.2698
     25 N          12.1766   41.7465    7.3579 N.am    1  UNL1       -0.2778
     26 H          11.9119   41.2766    6.5343 H       1  UNL1        0.1553
     27 C           9.7419   42.0706    7.7857 C.2     1  UNL1        0.0535
     28 C           8.7205   41.9544    8.6245 C.2     1  UNL1       -0.0211
     29 C           7.3311   41.9025    8.1002 C.3     1  UNL1        0.0309
@<TRIPOS>BOND
     1    21    22    1
     2    22    20    1
     3    14    20    1
     4    15    12    1
     5    15    16   ar
     6    10     1    1
     7     1     9   ar
     8     2    25    1
     9     2     3   ar
    10    23    27    1
    11    29    28    1
    12     4     5   ar
    13     6     7   ar
    14     8     9   ar
    15     8     3   ar
    16    17    18   ar
    17    19    14   ar
    18    12    10   am
    19    25    23   am
    20    14    15   ar
    21    10    11    2
    22     1     2   ar
    23    23    24    2
    24    27    28    2
    25     3     4   ar
    26     5     6   ar
    27     7     8   ar
    28    16    17   ar
    29    18    19   ar
    30    12    13    1
    31    25    26    1
@<TRIPOS>MOLECULE
MolPort-003-082-981 4341995 CSSS03437176986 PubChem-7200178 ZINC000004341995
 29 31 0 0 0
SMALL
GASTEIGER

@<TRIPOS>ATOM
      1 C          12.7908   39.5574    8.3005 C.ar    1  UNL1        0.2119
      2 C          11.5612   39.0655    8.7319 C.ar    1  UNL1        0.0931
      3 C          11.8449   37.8762    9.3735 C.ar    1  UNL1        0.0512
      4 C          11.0447   36.9704   10.0686 C.ar    1  UNL1        0.0044
      5 C          11.6730   35.8496   10.6398 C.ar    1  UNL1        0.0002
      6 C          13.0675   35.6682   10.5170 C.ar    1  UNL1        0.0031
      7 C          13.8536   36.6100    9.8294 C.ar    1  UNL1        0.0375
      8 C          13.2050   37.7108    9.2746 C.ar    1  UNL1        0.1468
      9 O          13.7536   38.7151    8.6319 O.2     1  UNL1       -0.4476
     10 C          13.0334   40.8168    7.5835 C.2     1  UNL1        0.2856
     11 O          12.1053   41.3582    6.9249 O.2     1  UNL1       -0.2664
     12 N          14.3374   41.4103    7.6458 N.am    1  UNL1       -0.2755
     13 H          15.0132   40.9223    8.1696 H       1  UNL1        0.1554
     14 C          15.9299   43.3094    7.5027 C.ar    1  UNL1        0.1519
     15 C          14.7714   42.6342    7.0326 C.ar    1  UNL1        0.0851
     16 C          14.0452   43.1894    5.9665 C.ar    1  UNL1        0.0178
     17 C          14.4447   44.3859    5.3713 C.ar    1  UNL1        0.0015
     18 C          15.5784   45.0480    5.8368 C.ar    1  UNL1        0.0032
     19 C          16.3123   44.5115    6.8951 C.ar    1  UNL1        0.0382
     20 O          16.7354   42.8518    8.5582 O.3     1  UNL1       -0.4742
     21 C          17.2965   40.7229    9.5092 C.3     1  UNL1        0.0512
     22 C          17.6564   41.7729    8.4792 C.3     1  UNL1        0.2056
     23 C           9.8263   40.7727    9.4966 C.2     1  UNL1        0.2494
     24 O          10.3669   40.9665   10.6191 O.2     1  UNL1       -0.2698
     25 N          10.3016   39.7431    8.6250 N.am    1  UNL1       -0.2778
     26 H           9.7106   39.4751    7.8847 H       1  UNL1        0.1553
     27 C           8.6606   41.5622    9.0876 C.2     1  UNL1        0.0535
     28 C           7.5755   41.6568    9.8452 C.2     1  UNL1       -0.0211
     29 C           6.4188   42.4695    9.3875 C.3     1  UNL1        0.0309
@<TRIPOS>BOND
     1    21    22    1
     2    22    20    1
     3    14    20    1
     4    15    12    1
     5    15    16   ar
     6    10     1    1
     7     1     9   ar
     8     2    25    1
     9     2     3   ar
    10    23    27    1
    11    29    28    1
    12     4     5   ar
    13     6     7   ar
    14     8     9   ar
    15     8     3   ar
    16    17    18   ar
    17    19    14   ar
    18    12    10   am
    19    25    23   am
    20    14    15   ar
    21    10    11    2
    22     1     2   ar
    23    23    24    2
    24    27    28    2
    25     3     4   ar
    26     5     6   ar
    27     7     8   ar
    28    16    17   ar
    29    18    19   ar
    30    12    13    1
    31    25    26    1
@<TRIPOS>MOLECULE
MolPort-003-082-981 4341995 CSSS03437176986 PubChem-7200178 ZINC000004341995
 29 31 0 0 0
SMALL
GASTEIGER

@<TRIPOS>ATOM
      1 C          13.0022   41.9613    6.9028 C.ar    1  UNL1        0.2119
      2 C          14.1506   41.6864    7.6414 C.ar    1  UNL1        0.0931
      3 C          15.0710   42.6428    7.2608 C.ar    1  UNL1        0.0512
      4 C          16.3640   42.9275    7.6976 C.ar    1  UNL1        0.0044
      5 C          17.0275   44.0170    7.1057 C.ar    1  UNL1        0.0002
      6 C          16.3891   44.7940    6.1151 C.ar    1  UNL1        0.0031
      7 C          15.0754   44.4977    5.7099 C.ar    1  UNL1        0.0375
      8 C          14.4422   43.4138    6.3136 C.ar    1  UNL1        0.1468
      9 O          13.2151   42.9956    6.1082 O.2     1  UNL1       -0.4476
     10 C          11.7227   41.2413    6.9628 C.2     1  UNL1        0.2856
     11 O          11.7009   40.0136    7.2461 O.2     1  UNL1       -0.2664
     12 N          10.5103   41.9578    6.6920 N.am    1  UNL1       -0.2755
     13 H          10.6091   42.9109    6.4661 H       1  UNL1        0.1554
     14 C           8.1885   42.0151    7.5688 C.ar    1  UNL1        0.1519
     15 C           9.1688   41.4458    6.7121 C.ar    1  UNL1        0.0851
     16 C           8.8112   40.3621    5.8937 C.ar    1  UNL1        0.0178
     17 C           7.5168   39.8429    5.9140 C.ar    1  UNL1        0.0015
     18 C           6.5587   40.4002    6.7579 C.ar    1  UNL1        0.0032
     19 C           6.8957   41.4772    7.5781 C.ar    1  UNL1        0.0382
     20 O           8.4269   43.0993    8.4290 O.3     1  UNL1       -0.4742
     21 C          10.1569   43.4814   10.0452 C.3     1  UNL1        0.0512
     22 C           8.7417   42.9967    9.8106 C.3     1  UNL1        0.2056
     23 C          15.4843   40.2950    9.3129 C.2     1  UNL1        0.2494
     24 O          16.6050   40.5962    8.8197 O.2     1  UNL1       -0.2698
     25 N          14.2716   40.6895    8.6654 N.am    1  UNL1       -0.2778
     26 H          13.4450   40.2356    8.9482 H       1  UNL1        0.1553
     27 C          15.4031   39.4828   10.5308 C.2     1  UNL1        0.0535
     28 C          14.5410   38.4816   10.6511 C.2     1  UNL1       -0.0211
     29 C          14.4963   37.6867   11.9058 C.3     1  UNL1        0.0309
@<TRIPOS>BOND
     1    21    22    1
     2    22    20    1
     3    14    20    1
     4    15    12    1
     5    15    16   ar
     6    10     1    1
     7     1     9   ar
     8     2    25    1
     9     2     3   ar
    10    23    27    1
    11    29    28    1
    12     4     5   ar
    13     6     7   ar
    14     8     9   ar
    15     8     3   ar
    16    17    18   ar
    17    19    14   ar
    18    12    10   am
    19    25    23   am
    20    14    15   ar
    21    10    11    2
    22     1     2   ar
    23    23    24    2
    24    27    28    2
    25     3     4   ar
    26     5     6   ar
    27     7     8   ar
    28    16    17   ar
    29    18    19   ar
    30    12    13    1
    31    25    26    1
@<TRIPOS>MOLECULE
MolPort-003-082-981 4341995 CSSS03437176986 PubChem-7200178 ZINC000004341995
 29 31 0 0 0
SMALL
GASTEIGER

@<TRIPOS>ATOM
      1 C          11.7854   41.5393    6.8122 C.ar    1  UNL1        0.2119
      2 C          10.6011   41.2278    7.4758 C.ar    1  UNL1        0.0931
      3 C           9.8536   40.4987    6.5722 C.ar    1  UNL1        0.0512
      4 C           8.6210   39.8553    6.6765 C.ar    1  UNL1        0.0044
      5 C           8.1507   39.1599    5.5485 C.ar    1  UNL1        0.0002
      6 C           8.9166   39.1124    4.3637 C.ar    1  UNL1        0.0031
      7 C          10.1672   39.7517    4.2942 C.ar    1  UNL1        0.0375
      8 C          10.6086   40.4322    5.4266 C.ar    1  UNL1        0.1468
      9 O          11.7521   41.0575    5.5822 O.2     1  UNL1       -0.4476
     10 C          12.9287   42.2864    7.3543 C.2     1  UNL1        0.2856
     11 O          12.7369   43.2559    8.1362 O.2     1  UNL1       -0.2664
     12 N          14.2554   41.8943    6.9764 N.am    1  UNL1       -0.2755
     13 H          14.3241   41.1358    6.3526 H       1  UNL1        0.1554
     14 C          16.3162   41.8241    8.3589 C.ar    1  UNL1        0.1519
     15 C          15.4952   42.4803    7.4026 C.ar    1  UNL1        0.0851
     16 C          15.9064   43.7211    6.8893 C.ar    1  UNL1        0.0178
     17 C          17.0998   44.3110    7.3056 C.ar    1  UNL1        0.0015
     18 C          17.9007   43.6675    8.2464 C.ar    1  UNL1        0.0032
     19 C          17.5084   42.4343    8.7675 C.ar    1  UNL1        0.0382
     20 O          16.0113   40.5827    8.9405 O.3     1  UNL1       -0.4742
     21 C          15.1581   39.2224   10.7217 C.3     1  UNL1        0.0512
     22 C          14.8463   40.2974    9.7019 C.3     1  UNL1        0.2056
     23 C           9.2382   42.3315    9.3287 C.2     1  UNL1        0.2494
     24 O           8.6296   43.1146    8.5501 O.2     1  UNL1       -0.2698
     25 N          10.3091   41.5127    8.8508 N.am    1  UNL1       -0.2778
     26 H          10.8992   41.1080    9.5269 H       1  UNL1        0.1553
     27 C           8.8976   42.2883   10.7540 C.2     1  UNL1        0.0535
     28 C           9.1988   41.2454   11.5169 C.2     1  UNL1       -0.0211
     29 C           8.8327   41.2483   12.9570 C.3     1  UNL1        0.0309
@<TRIPOS>BOND
     1    21    22    1
     2    22    20    1
     3    14    20    1
     4    15    12    1
     5    15    16   ar
     6    10     1    1
     7     1     9   ar
     8     2    25    1
     9     2     3   ar
    10    23    27    1
    11    29    28    1
    12     4     5   ar
    13     6     7   ar
    14     8     9   ar
    15     8     3   ar
    16    17    18   ar
    17    19    14   ar
    18    12    10   am
    19    25    23   am
    20    14    15   ar
    21    10    11    2
    22     1     2   ar
    23    23    24    2
    24    27    28    2
    25     3     4   ar
    26     5     6   ar
    27     7     8   ar
    28    16    17   ar
    29    18    19   ar
    30    12    13    1
    31    25    26    1
