@<TRIPOS>MOLECULE
MolPort-023-255-931 77376000 CSSS00159601466 MCULE-3572694941 PubChem-70730494 ZINC000077376000 ZINC77376000
 27 30 0 0 0
SMALL
GASTEIGER

@<TRIPOS>ATOM
      1 C           3.6659   39.7042   11.9673 C.3     1  UNL1        0.0324
      2 C           2.9372   40.9615   12.2992 C.ar    1  UNL1       -0.0069
      3 C           3.2567   42.1976   11.6945 C.ar    1  UNL1        0.0467
      4 C           2.4654   43.3175   11.9679 C.ar    1  UNL1        0.0159
      5 C           1.3922   43.2291   12.8564 C.ar    1  UNL1        0.0188
      6 C           1.0772   42.0091   13.4685 C.ar    1  UNL1        0.0652
      7 C           1.8602   40.8820   13.1870 C.ar    1  UNL1        0.0145
      8 C          -1.0360   41.0718   14.3139 C.ar    1  UNL1        0.1022
      9 C          -1.7921   41.1800   15.4654 C.ar    1  UNL1        0.1195
     10 C          -0.1369   42.5283   15.6208 C.ar    1  UNL1        0.1492
     11 N           0.0039   41.9192   14.4198 N.ar    1  UNL1       -0.2888
     12 N          -1.2256   42.0909   16.2828 N.ar    1  UNL1       -0.2248
     13 C           0.7076   43.6218   16.1444 C.ar    1  UNL1        0.0536
     14 C           1.5596   43.3861   17.2304 C.ar    1  UNL1        0.1018
     15 C           2.2466   45.6588   17.2470 C.ar    1  UNL1        0.0989
     16 C           1.3967   45.9455   16.1777 C.ar    1  UNL1        0.0208
     17 C           0.6210   44.9219   15.6324 C.ar    1  UNL1        0.0062
     18 N           2.3078   44.3967   17.7494 N.ar    1  UNL1       -0.2422
     19 C           4.2064   42.8447    9.4280 C.2     1  UNL1        0.2842
     20 N           4.3361   42.3421   10.7624 N.am    1  UNL1       -0.2781
     21 O           3.0680   42.9764    8.9018 O.2     1  UNL1       -0.2665
     22 H           5.2350   42.0755   11.0626 H       1  UNL1        0.1553
     23 C           5.4114   43.1648    8.6566 C.ar    1  UNL1        0.1988
     24 C           6.6221   42.5113    8.7517 C.ar    1  UNL1        0.0455
     25 C           7.4437   43.1561    7.8435 C.ar    1  UNL1        0.0440
     26 C           6.6818   44.1537    7.2592 C.ar    1  UNL1        0.1798
     27 O           5.4751   44.1261    7.7711 O.2     1  UNL1       -0.4458
@<TRIPOS>BOND
     1     1     2    1
     2     3    20    1
     3     3     4   ar
     4    19    23    1
     5    23    27   ar
     6    24    25   ar
     7    26    27   ar
     8     5     6   ar
     9     6    11    1
    10     7     2   ar
    11     9    12   ar
    12    10    13    1
    13    10    11   ar
    14    14    18   ar
    15    15    16   ar
    16    17    13   ar
    17    20    19   am
    18    11     8   ar
    19     2     3   ar
    20    19    21    2
    21    23    24   ar
    22    25    26   ar
    23     4     5   ar
    24     6     7   ar
    25     8     9   ar
    26    10    12   ar
    27    13    14   ar
    28    15    18   ar
    29    16    17   ar
    30    20    22    1
@<TRIPOS>MOLECULE
MolPort-023-255-931 77376000 CSSS00159601466 MCULE-3572694941 PubChem-70730494 ZINC000077376000 ZINC77376000
 27 30 0 0 0
SMALL
GASTEIGER

@<TRIPOS>ATOM
      1 C          13.2047   40.5797    9.6854 C.3     1  UNL1        0.0324
      2 C          12.4415   41.0015    8.4765 C.ar    1  UNL1       -0.0069
      3 C          13.0599   41.6542    7.3869 C.ar    1  UNL1        0.0467
      4 C          12.3107   41.9263    6.2381 C.ar    1  UNL1        0.0159
      5 C          10.9567   41.5917    6.1773 C.ar    1  UNL1        0.0188
      6 C          10.3345   40.9549    7.2587 C.ar    1  UNL1        0.0652
      7 C          11.0853   40.6692    8.4066 C.ar    1  UNL1        0.0145
      8 C           8.0292   41.1161    8.1063 C.ar    1  UNL1        0.1022
      9 C           6.7750   40.7174    7.6850 C.ar    1  UNL1        0.1195
     10 C           8.2188   39.9749    6.2899 C.ar    1  UNL1        0.1492
     11 N           8.9310   40.6490    7.2235 N.ar    1  UNL1       -0.2888
     12 N           6.8966   40.0050    6.5463 N.ar    1  UNL1       -0.2248
     13 C           8.7783   39.1934    5.1677 C.ar    1  UNL1        0.0536
     14 C           9.2174   37.8812    5.3822 C.ar    1  UNL1        0.1018
     15 C           9.9371   37.7017    3.1267 C.ar    1  UNL1        0.0989
     16 C           9.5327   39.0128    2.8712 C.ar    1  UNL1        0.0208
     17 C           8.9583   39.7599    3.9002 C.ar    1  UNL1        0.0062
     18 N           9.7757   37.1682    4.3671 N.ar    1  UNL1       -0.2422
     19 C          14.9780   43.2661    6.9623 C.2     1  UNL1        0.2842
     20 N          14.4496   42.0055    7.3883 N.am    1  UNL1       -0.2781
     21 O          14.2552   44.0807    6.3265 O.2     1  UNL1       -0.2665
     22 H          15.0895   41.3283    7.7065 H       1  UNL1        0.1553
     23 C          16.3829   43.5883    7.2307 C.ar    1  UNL1        0.1988
     24 C          17.0435   43.3666    8.4209 C.ar    1  UNL1        0.0455
     25 C          18.3310   43.8243    8.2005 C.ar    1  UNL1        0.0440
     26 C          18.3676   44.2912    6.8975 C.ar    1  UNL1        0.1798
     27 O          17.1858   44.1327    6.3525 O.2     1  UNL1       -0.4458
@<TRIPOS>BOND
     1     1     2    1
     2     3    20    1
     3     3     4   ar
     4    19    23    1
     5    23    27   ar
     6    24    25   ar
     7    26    27   ar
     8     5     6   ar
     9     6    11    1
    10     7     2   ar
    11     9    12   ar
    12    10    13    1
    13    10    11   ar
    14    14    18   ar
    15    15    16   ar
    16    17    13   ar
    17    20    19   am
    18    11     8   ar
    19     2     3   ar
    20    19    21    2
    21    23    24   ar
    22    25    26   ar
    23     4     5   ar
    24     6     7   ar
    25     8     9   ar
    26    10    12   ar
    27    13    14   ar
    28    15    18   ar
    29    16    17   ar
    30    20    22    1
@<TRIPOS>MOLECULE
MolPort-023-255-931 77376000 CSSS00159601466 MCULE-3572694941 PubChem-70730494 ZINC000077376000 ZINC77376000
 27 30 0 0 0
SMALL
GASTEIGER

@<TRIPOS>ATOM
      1 C          12.5437   40.8592    9.4791 C.3     1  UNL1        0.0324
      2 C          11.9000   41.0437    8.1473 C.ar    1  UNL1       -0.0069
      3 C          12.6306   41.4524    7.0094 C.ar    1  UNL1        0.0467
      4 C          11.9905   41.5020    5.7673 C.ar    1  UNL1        0.0159
      5 C          10.6351   41.1874    5.6536 C.ar    1  UNL1        0.0188
      6 C           9.9020   40.7927    6.7801 C.ar    1  UNL1        0.0652
      7 C          10.5433   40.7295    8.0241 C.ar    1  UNL1        0.0145
      8 C           7.9793   39.4201    6.0886 C.ar    1  UNL1        0.1022
      9 C           6.6133   39.4289    6.2974 C.ar    1  UNL1        0.1195
     10 C           7.4459   41.1655    7.2318 C.ar    1  UNL1        0.1492
     11 N           8.4962   40.5121    6.6812 N.ar    1  UNL1       -0.2888
     12 N           6.2825   40.5216    7.0153 N.ar    1  UNL1       -0.2248
     13 C           7.4966   42.4800    7.9045 C.ar    1  UNL1        0.0536
     14 C           6.7992   43.5674    7.3640 C.ar    1  UNL1        0.1018
     15 C           7.6319   45.0063    9.0591 C.ar    1  UNL1        0.0989
     16 C           8.3603   43.9570    9.6215 C.ar    1  UNL1        0.0208
     17 C           8.2952   42.6929    9.0345 C.ar    1  UNL1        0.0062
     18 N           6.8753   44.7928    7.9496 N.ar    1  UNL1       -0.2422
     19 C          14.5743   43.0878    6.9390 C.2     1  UNL1        0.2842
     20 N          14.0271   41.7707    7.0650 N.am    1  UNL1       -0.2781
     21 O          13.8582   44.0416    6.5297 O.2     1  UNL1       -0.2665
     22 H          14.6580   41.0271    7.2002 H       1  UNL1        0.1553
     23 C          15.9898   43.3142    7.2468 C.ar    1  UNL1        0.1988
     24 C          16.7961   44.2666    6.6597 C.ar    1  UNL1        0.0455
     25 C          18.0311   44.1042    7.2631 C.ar    1  UNL1        0.0440
     26 C          17.8944   43.0693    8.1727 C.ar    1  UNL1        0.1798
     27 O          16.6617   42.6246    8.1331 O.2     1  UNL1       -0.4458
@<TRIPOS>BOND
     1     1     2    1
     2     3    20    1
     3     3     4   ar
     4    19    23    1
     5    23    27   ar
     6    24    25   ar
     7    26    27   ar
     8     5     6   ar
     9     6    11    1
    10     7     2   ar
    11     9    12   ar
    12    10    13    1
    13    10    11   ar
    14    14    18   ar
    15    15    16   ar
    16    17    13   ar
    17    20    19   am
    18    11     8   ar
    19     2     3   ar
    20    19    21    2
    21    23    24   ar
    22    25    26   ar
    23     4     5   ar
    24     6     7   ar
    25     8     9   ar
    26    10    12   ar
    27    13    14   ar
    28    15    18   ar
    29    16    17   ar
    30    20    22    1
@<TRIPOS>MOLECULE
MolPort-023-255-931 77376000 CSSS00159601466 MCULE-3572694941 PubChem-70730494 ZINC000077376000 ZINC77376000
 27 30 0 0 0
SMALL
GASTEIGER

@<TRIPOS>ATOM
      1 C           9.7158   43.8865   10.3817 C.3     1  UNL1        0.0324
      2 C          10.2190   42.8742    9.4102 C.ar    1  UNL1       -0.0069
      3 C           9.4293   42.4045    8.3371 C.ar    1  UNL1        0.0467
      4 C           9.9968   41.5371    7.3987 C.ar    1  UNL1        0.0159
      5 C          11.3181   41.1077    7.5364 C.ar    1  UNL1        0.0188
      6 C          12.1030   41.5603    8.6047 C.ar    1  UNL1        0.0652
      7 C          11.5415   42.4397    9.5397 C.ar    1  UNL1        0.0145
      8 C          13.7871   40.0197    9.5261 C.ar    1  UNL1        0.1022
      9 C          15.1402   39.7950    9.3580 C.ar    1  UNL1        0.1195
     10 C          14.5911   41.4957    8.1798 C.ar    1  UNL1        0.1492
     11 N          13.4485   41.0875    8.7805 N.ar    1  UNL1       -0.2888
     12 N          15.6404   40.7192    8.5128 N.ar    1  UNL1       -0.2248
     13 C          14.7479   42.7007    7.3393 C.ar    1  UNL1        0.0536
     14 C          13.7204   43.0815    6.4675 C.ar    1  UNL1        0.1018
     15 C          15.0175   44.8960    5.6535 C.ar    1  UNL1        0.0989
     16 C          16.0763   44.5424    6.4911 C.ar    1  UNL1        0.0208
     17 C          15.9394   43.4358    7.3300 C.ar    1  UNL1        0.0062
     18 N          13.8722   44.1629    5.6563 N.ar    1  UNL1       -0.2422
     19 C           6.9515   42.3669    8.8999 C.2     1  UNL1        0.2842
     20 N           8.0735   42.8251    8.1377 N.am    1  UNL1       -0.2781
     21 O           7.0598   41.3659    9.6592 O.2     1  UNL1       -0.2665
     22 H           7.9007   43.4788    7.4221 H       1  UNL1        0.1553
     23 C           5.6581   43.0427    8.7588 C.ar    1  UNL1        0.1988
     24 C           5.4201   44.1692    7.9997 C.ar    1  UNL1        0.0455
     25 C           4.0725   44.4334    8.1730 C.ar    1  UNL1        0.0440
     26 C           3.5831   43.4549    9.0215 C.ar    1  UNL1        0.1798
     27 O           4.5601   42.6440    9.3485 O.2     1  UNL1       -0.4458
@<TRIPOS>BOND
     1     1     2    1
     2     3    20    1
     3     3     4   ar
     4    19    23    1
     5    23    27   ar
     6    24    25   ar
     7    26    27   ar
     8     5     6   ar
     9     6    11    1
    10     7     2   ar
    11     9    12   ar
    12    10    13    1
    13    10    11   ar
    14    14    18   ar
    15    15    16   ar
    16    17    13   ar
    17    20    19   am
    18    11     8   ar
    19     2     3   ar
    20    19    21    2
    21    23    24   ar
    22    25    26   ar
    23     4     5   ar
    24     6     7   ar
    25     8     9   ar
    26    10    12   ar
    27    13    14   ar
    28    15    18   ar
    29    16    17   ar
    30    20    22    1
@<TRIPOS>MOLECULE
MolPort-023-255-931 77376000 CSSS00159601466 MCULE-3572694941 PubChem-70730494 ZINC000077376000 ZINC77376000
 27 30 0 0 0
SMALL
GASTEIGER

@<TRIPOS>ATOM
      1 C          12.0557   35.3757   10.7520 C.3     1  UNL1        0.0324
      2 C          12.5471   36.5983   10.0550 C.ar    1  UNL1       -0.0069
      3 C          13.6235   36.5611    9.1409 C.ar    1  UNL1        0.0467
      4 C          13.9655   37.7213    8.4395 C.ar    1  UNL1        0.0159
      5 C          13.2776   38.9153    8.6632 C.ar    1  UNL1        0.0188
      6 C          12.2168   38.9619    9.5770 C.ar    1  UNL1        0.0652
      7 C          11.8631   37.7981   10.2721 C.ar    1  UNL1        0.0145
      8 C          10.5353   40.3325   10.7401 C.ar    1  UNL1        0.1022
      9 C          10.2150   41.6744   10.8194 C.ar    1  UNL1        0.1195
     10 C          11.7996   41.4458    9.3986 C.ar    1  UNL1        0.1492
     11 N          11.5337   40.1967    9.8482 N.ar    1  UNL1       -0.2888
     12 N          11.0097   42.3692    9.9802 N.ar    1  UNL1       -0.2248
     13 C          12.7523   41.7983    8.3256 C.ar    1  UNL1        0.0536
     14 C          14.1291   41.7750    8.5799 C.ar    1  UNL1        0.1018
     15 C          14.5968   42.5500    6.3849 C.ar    1  UNL1        0.0989
     16 C          13.2334   42.6085    6.0923 C.ar    1  UNL1        0.0208
     17 C          12.3113   42.2373    7.0714 C.ar    1  UNL1        0.0062
     18 N          15.0132   42.1412    7.6132 N.ar    1  UNL1       -0.2422
     19 C          15.7604   35.2952    8.6037 C.2     1  UNL1        0.2842
     20 N          14.3533   35.3597    8.8599 N.am    1  UNL1       -0.2781
     21 O          16.4181   36.3467    8.3758 O.2     1  UNL1       -0.2665
     22 H          13.8485   34.5147    8.8417 H       1  UNL1        0.1553
     23 C          16.4280   33.9905    8.5633 C.ar    1  UNL1        0.1988
     24 C          15.8054   32.7765    8.3619 C.ar    1  UNL1        0.0455
     25 C          16.8275   31.8442    8.4036 C.ar    1  UNL1        0.0440
     26 C          17.9979   32.5497    8.6263 C.ar    1  UNL1        0.1798
     27 O          17.7174   33.8272    8.7156 O.2     1  UNL1       -0.4458
@<TRIPOS>BOND
     1     1     2    1
     2     3    20    1
     3     3     4   ar
     4    19    23    1
     5    23    27   ar
     6    24    25   ar
     7    26    27   ar
     8     5     6   ar
     9     6    11    1
    10     7     2   ar
    11     9    12   ar
    12    10    13    1
    13    10    11   ar
    14    14    18   ar
    15    15    16   ar
    16    17    13   ar
    17    20    19   am
    18    11     8   ar
    19     2     3   ar
    20    19    21    2
    21    23    24   ar
    22    25    26   ar
    23     4     5   ar
    24     6     7   ar
    25     8     9   ar
    26    10    12   ar
    27    13    14   ar
    28    15    18   ar
    29    16    17   ar
    30    20    22    1
@<TRIPOS>MOLECULE
MolPort-023-255-931 77376000 CSSS00159601466 MCULE-3572694941 PubChem-70730494 ZINC000077376000 ZINC77376000
 27 30 0 0 0
SMALL
GASTEIGER

@<TRIPOS>ATOM
      1 C           8.9972   40.2897    7.6726 C.3     1  UNL1        0.0324
      2 C           8.6651   41.5894    8.3225 C.ar    1  UNL1       -0.0069
      3 C           9.6209   42.3311    9.0519 C.ar    1  UNL1        0.0467
      4 C           9.2762   43.5933    9.5447 C.ar    1  UNL1        0.0159
      5 C           7.9912   44.1042    9.3526 C.ar    1  UNL1        0.0188
      6 C           7.0351   43.3688    8.6404 C.ar    1  UNL1        0.0652
      7 C           7.3811   42.1092    8.1340 C.ar    1  UNL1        0.0145
      8 C           5.3671   44.9258    7.7172 C.ar    1  UNL1        0.1022
      9 C           3.9890   45.0273    7.7028 C.ar    1  UNL1        0.1195
     10 C           4.5251   43.3466    8.9150 C.ar    1  UNL1        0.1492
     11 N           5.6966   43.8659    8.4779 N.ar    1  UNL1       -0.2888
     12 N           3.4645   44.0360    8.4517 N.ar    1  UNL1       -0.2248
     13 C           4.3728   42.2296    9.8701 C.ar    1  UNL1        0.0536
     14 C           5.1995   42.1588   10.9981 C.ar    1  UNL1        0.1018
     15 C           4.2119   40.1014   11.6530 C.ar    1  UNL1        0.0989
     16 C           3.3812   40.1190   10.5316 C.ar    1  UNL1        0.0208
     17 C           3.4705   41.1852    9.6360 C.ar    1  UNL1        0.0062
     18 N           5.0988   41.1112   11.8599 N.ar    1  UNL1       -0.2422
     19 C          11.3667   41.0012   10.3330 C.2     1  UNL1        0.2842
     20 N          10.9590   41.8630    9.2649 N.am    1  UNL1       -0.2781
     21 O          10.5978   40.7837   11.3086 O.2     1  UNL1       -0.2665
     22 H          11.6502   42.1564    8.6282 H       1  UNL1        0.1553
     23 C          12.7061   40.4055   10.3092 C.ar    1  UNL1        0.1988
     24 C          13.2323   39.5754   11.2766 C.ar    1  UNL1        0.0455
     25 C          14.5046   39.2695   10.8255 C.ar    1  UNL1        0.0440
     26 C          14.6666   39.9305    9.6197 C.ar    1  UNL1        0.1798
     27 O          13.5713   40.5971    9.3463 O.2     1  UNL1       -0.4458
@<TRIPOS>BOND
     1     1     2    1
     2     3    20    1
     3     3     4   ar
     4    19    23    1
     5    23    27   ar
     6    24    25   ar
     7    26    27   ar
     8     5     6   ar
     9     6    11    1
    10     7     2   ar
    11     9    12   ar
    12    10    13    1
    13    10    11   ar
    14    14    18   ar
    15    15    16   ar
    16    17    13   ar
    17    20    19   am
    18    11     8   ar
    19     2     3   ar
    20    19    21    2
    21    23    24   ar
    22    25    26   ar
    23     4     5   ar
    24     6     7   ar
    25     8     9   ar
    26    10    12   ar
    27    13    14   ar
    28    15    18   ar
    29    16    17   ar
    30    20    22    1
@<TRIPOS>MOLECULE
MolPort-023-255-931 77376000 CSSS00159601466 MCULE-3572694941 PubChem-70730494 ZINC000077376000 ZINC77376000
 27 30 0 0 0
SMALL
GASTEIGER

@<TRIPOS>ATOM
      1 C           9.8242   41.1475    5.7367 C.3     1  UNL1        0.0324
      2 C          10.4303   41.5516    7.0373 C.ar    1  UNL1       -0.0069
      3 C           9.7140   42.2949    8.0017 C.ar    1  UNL1        0.0467
      4 C          10.3022   42.5488    9.2446 C.ar    1  UNL1        0.0159
      5 C          11.5970   42.1063    9.5213 C.ar    1  UNL1        0.0188
      6 C          12.3172   41.3789    8.5650 C.ar    1  UNL1        0.0652
      7 C          11.7261   41.1116    7.3233 C.ar    1  UNL1        0.0145
      8 C          14.0042   39.9416    9.6361 C.ar    1  UNL1        0.1022
      9 C          15.3698   39.7537    9.5390 C.ar    1  UNL1        0.1195
     10 C          14.8229   41.3756    8.2536 C.ar    1  UNL1        0.1492
     11 N          13.6672   40.9599    8.8234 N.ar    1  UNL1       -0.2888
     12 N          15.8793   40.6514    8.6711 N.ar    1  UNL1       -0.2248
     13 C          14.9806   42.5424    7.3610 C.ar    1  UNL1        0.0536
     14 C          16.0182   43.4559    7.5841 C.ar    1  UNL1        0.1018
     15 C          15.2736   44.8151    5.7852 C.ar    1  UNL1        0.0989
     16 C          14.2122   43.9432    5.5382 C.ar    1  UNL1        0.0208
     17 C          14.0648   42.8080    6.3360 C.ar    1  UNL1        0.0062
     18 N          16.1456   44.5577    6.7965 N.ar    1  UNL1       -0.2422
     19 C           7.2954   42.6269    8.7071 C.2     1  UNL1        0.2842
     20 N           8.3765   42.7592    7.7777 N.am    1  UNL1       -0.2781
     21 O           7.4022   41.8686    9.7090 O.2     1  UNL1       -0.2665
     22 H           8.1867   43.2027    6.9195 H       1  UNL1        0.1553
     23 C           6.0413   43.3463    8.4633 C.ar    1  UNL1        0.1988
     24 C           5.8803   44.4070    7.5968 C.ar    1  UNL1        0.0455
     25 C           4.5432   44.7488    7.7020 C.ar    1  UNL1        0.0440
     26 C           3.9829   43.8776    8.6207 C.ar    1  UNL1        0.1798
     27 O           4.9092   43.0561    9.0518 O.2     1  UNL1       -0.4458
@<TRIPOS>BOND
     1     1     2    1
     2     3    20    1
     3     3     4   ar
     4    19    23    1
     5    23    27   ar
     6    24    25   ar
     7    26    27   ar
     8     5     6   ar
     9     6    11    1
    10     7     2   ar
    11     9    12   ar
    12    10    13    1
    13    10    11   ar
    14    14    18   ar
    15    15    16   ar
    16    17    13   ar
    17    20    19   am
    18    11     8   ar
    19     2     3   ar
    20    19    21    2
    21    23    24   ar
    22    25    26   ar
    23     4     5   ar
    24     6     7   ar
    25     8     9   ar
    26    10    12   ar
    27    13    14   ar
    28    15    18   ar
    29    16    17   ar
    30    20    22    1
@<TRIPOS>MOLECULE
MolPort-023-255-931 77376000 CSSS00159601466 MCULE-3572694941 PubChem-70730494 ZINC000077376000 ZINC77376000
 27 30 0 0 0
SMALL
GASTEIGER

@<TRIPOS>ATOM
      1 C           9.4325   43.7860   10.6847 C.3     1  UNL1        0.0324
      2 C           9.9494   42.6611    9.8545 C.ar    1  UNL1       -0.0069
      3 C           9.1672   41.5220    9.5610 C.ar    1  UNL1        0.0467
      4 C           9.6709   40.5527    8.6881 C.ar    1  UNL1        0.0159
      5 C          10.9473   40.6864    8.1386 C.ar    1  UNL1        0.0188
      6 C          11.7328   41.8077    8.4348 C.ar    1  UNL1        0.0652
      7 C          11.2261   42.7871    9.2990 C.ar    1  UNL1        0.0145
      8 C          13.3983   42.6926    6.8529 C.ar    1  UNL1        0.1022
      9 C          14.7736   42.6618    6.7224 C.ar    1  UNL1        0.1195
     10 C          14.2320   41.4487    8.4007 C.ar    1  UNL1        0.1492
     11 N          13.0654   41.9310    7.9112 N.ar    1  UNL1       -0.2888
     12 N          15.2930   41.8842    7.6941 N.ar    1  UNL1       -0.2248
     13 C          14.3752   40.4760    9.5036 C.ar    1  UNL1        0.0536
     14 C          15.5586   39.7389    9.6343 C.ar    1  UNL1        0.1018
     15 C          14.6730   38.5545   11.4918 C.ar    1  UNL1        0.0989
     16 C          13.4677   39.2503   11.3877 C.ar    1  UNL1        0.0208
     17 C          13.3201   40.2084   10.3841 C.ar    1  UNL1        0.0062
     18 N          15.6840   38.8084   10.6185 N.ar    1  UNL1       -0.2422
     19 C           6.6359   41.6641    9.3870 C.2     1  UNL1        0.2842
     20 N           7.8446   41.3413   10.0834 N.am    1  UNL1       -0.2781
     21 O           6.6696   42.3599    8.3359 O.2     1  UNL1       -0.2665
     22 H           7.7609   40.9668   10.9900 H       1  UNL1        0.1553
     23 C           5.3489   41.2174    9.9289 C.ar    1  UNL1        0.1988
     24 C           4.1317   41.3136    9.2877 C.ar    1  UNL1        0.0455
     25 C           3.2207   40.7691   10.1762 C.ar    1  UNL1        0.0440
     26 C           3.9409   40.3799   11.2929 C.ar    1  UNL1        0.1798
     27 O           5.2070   40.6642   11.1062 O.2     1  UNL1       -0.4458
@<TRIPOS>BOND
     1     1     2    1
     2     3    20    1
     3     3     4   ar
     4    19    23    1
     5    23    27   ar
     6    24    25   ar
     7    26    27   ar
     8     5     6   ar
     9     6    11    1
    10     7     2   ar
    11     9    12   ar
    12    10    13    1
    13    10    11   ar
    14    14    18   ar
    15    15    16   ar
    16    17    13   ar
    17    20    19   am
    18    11     8   ar
    19     2     3   ar
    20    19    21    2
    21    23    24   ar
    22    25    26   ar
    23     4     5   ar
    24     6     7   ar
    25     8     9   ar
    26    10    12   ar
    27    13    14   ar
    28    15    18   ar
    29    16    17   ar
    30    20    22    1
@<TRIPOS>MOLECULE
MolPort-023-255-931 77376000 CSSS00159601466 MCULE-3572694941 PubChem-70730494 ZINC000077376000 ZINC77376000
 27 30 0 0 0
SMALL
GASTEIGER

@<TRIPOS>ATOM
      1 C          11.1645   40.9413   11.3760 C.3     1  UNL1        0.0324
      2 C          11.9118   40.2227   10.3049 C.ar    1  UNL1       -0.0069
      3 C          11.2779   39.7471    9.1355 C.ar    1  UNL1        0.0467
      4 C          12.0532   39.1779    8.1206 C.ar    1  UNL1        0.0159
      5 C          13.4347   39.0451    8.2718 C.ar    1  UNL1        0.0188
      6 C          14.0680   39.5039    9.4340 C.ar    1  UNL1        0.0652
      7 C          13.2958   40.0866   10.4475 C.ar    1  UNL1        0.0145
      8 C          16.3363   40.3223    9.9277 C.ar    1  UNL1        0.1022
      9 C          17.5798   39.7611   10.1475 C.ar    1  UNL1        0.1195
     10 C          16.2136   38.1903    9.6493 C.ar    1  UNL1        0.1492
     11 N          15.4823   39.3294    9.6184 N.ar    1  UNL1       -0.2888
     12 N          17.4994   38.4260    9.9747 N.ar    1  UNL1       -0.2248
     13 C          15.7378   36.8423    9.2759 C.ar    1  UNL1        0.0536
     14 C          14.6515   36.2738    9.9525 C.ar    1  UNL1        0.1018
     15 C          14.8558   34.2693    8.6964 C.ar    1  UNL1        0.0989
     16 C          15.9552   34.7867    8.0099 C.ar    1  UNL1        0.0208
     17 C          16.3988   36.0754    8.3090 C.ar    1  UNL1        0.0062
     18 N          14.2337   35.0157    9.6478 N.ar    1  UNL1       -0.2422
     19 C           9.2445   40.8869    8.1236 C.2     1  UNL1        0.2842
     20 N           9.8663   39.8725    8.9200 N.am    1  UNL1       -0.2781
     21 O           9.9016   41.8936    7.7428 O.2     1  UNL1       -0.2665
     22 H           9.2797   39.2107    9.3526 H       1  UNL1        0.1553
     23 C           7.8218   40.7713    7.7888 C.ar    1  UNL1        0.1988
     24 C           6.7795   41.2970    8.5231 C.ar    1  UNL1        0.0455
     25 C           5.6395   40.9380    7.8251 C.ar    1  UNL1        0.0440
     26 C           6.0622   40.2217    6.7182 C.ar    1  UNL1        0.1798
     27 O           7.3709   40.1443    6.7324 O.2     1  UNL1       -0.4458
@<TRIPOS>BOND
     1     1     2    1
     2     3    20    1
     3     3     4   ar
     4    19    23    1
     5    23    27   ar
     6    24    25   ar
     7    26    27   ar
     8     5     6   ar
     9     6    11    1
    10     7     2   ar
    11     9    12   ar
    12    10    13    1
    13    10    11   ar
    14    14    18   ar
    15    15    16   ar
    16    17    13   ar
    17    20    19   am
    18    11     8   ar
    19     2     3   ar
    20    19    21    2
    21    23    24   ar
    22    25    26   ar
    23     4     5   ar
    24     6     7   ar
    25     8     9   ar
    26    10    12   ar
    27    13    14   ar
    28    15    18   ar
    29    16    17   ar
    30    20    22    1
@<TRIPOS>MOLECULE
MolPort-023-255-931 77376000 CSSS00159601466 MCULE-3572694941 PubChem-70730494 ZINC000077376000 ZINC77376000
 27 30 0 0 0
SMALL
GASTEIGER

@<TRIPOS>ATOM
      1 C          11.6298   40.1090    7.0959 C.3     1  UNL1        0.0324
      2 C          12.2381   40.1342    8.4565 C.ar    1  UNL1       -0.0069
      3 C          11.4534   40.1899    9.6298 C.ar    1  UNL1        0.0467
      4 C          12.0802   40.1014   10.8766 C.ar    1  UNL1        0.0159
      5 C          13.4693   39.9959   10.9673 C.ar    1  UNL1        0.0188
      6 C          14.2542   39.9519    9.8080 C.ar    1  UNL1        0.0652
      7 C          13.6285   40.0274    8.5568 C.ar    1  UNL1        0.0145
      8 C          16.3692   38.9413   10.5594 C.ar    1  UNL1        0.1022
      9 C          17.7156   39.1327   10.3142 C.ar    1  UNL1        0.1195
     10 C          16.6211   40.6411    9.2612 C.ar    1  UNL1        0.1492
     11 N          15.6874   39.8905    9.8922 N.ar    1  UNL1       -0.2888
     12 N          17.8701   40.1961    9.4993 N.ar    1  UNL1       -0.2248
     13 C          16.3660   41.8710    8.4833 C.ar    1  UNL1        0.0536
     14 C          17.1603   43.0053    8.6915 C.ar    1  UNL1        0.1018
     15 C          15.8763   44.2508    7.1303 C.ar    1  UNL1        0.0989
     16 C          15.0455   43.1522    6.9051 C.ar    1  UNL1        0.0208
     17 C          15.2906   41.9624    7.5916 C.ar    1  UNL1        0.0062
     18 N          16.9059   44.1569    8.0137 N.ar    1  UNL1       -0.2422
     19 C           9.2789   41.5039    9.5830 C.2     1  UNL1        0.2842
     20 N          10.0233   40.2810    9.5956 N.am    1  UNL1       -0.2781
     21 O           9.8455   42.6005    9.8415 O.2     1  UNL1       -0.2665
     22 H           9.5142   39.4385    9.5796 H       1  UNL1        0.1553
     23 C           7.8387   41.4700    9.3107 C.ar    1  UNL1        0.1988
     24 C           7.2541   41.0464    8.1356 C.ar    1  UNL1        0.0455
     25 C           5.8938   41.1928    8.3452 C.ar    1  UNL1        0.0440
     26 C           5.7424   41.6929    9.6273 C.ar    1  UNL1        0.1798
     27 O           6.9260   41.8443   10.1705 O.2     1  UNL1       -0.4458
@<TRIPOS>BOND
     1     1     2    1
     2     3    20    1
     3     3     4   ar
     4    19    23    1
     5    23    27   ar
     6    24    25   ar
     7    26    27   ar
     8     5     6   ar
     9     6    11    1
    10     7     2   ar
    11     9    12   ar
    12    10    13    1
    13    10    11   ar
    14    14    18   ar
    15    15    16   ar
    16    17    13   ar
    17    20    19   am
    18    11     8   ar
    19     2     3   ar
    20    19    21    2
    21    23    24   ar
    22    25    26   ar
    23     4     5   ar
    24     6     7   ar
    25     8     9   ar
    26    10    12   ar
    27    13    14   ar
    28    15    18   ar
    29    16    17   ar
    30    20    22    1
