@<TRIPOS>MOLECULE
MolPort-044-423-548 CSSS14880536645 MCULE-6906365711 ZINC000675028112
 25 26 0 0 0
SMALL
GASTEIGER

@<TRIPOS>ATOM
      1 C          13.4830   42.1176    7.0698 C.ar    1  UNL1        0.1328
      2 C          12.4827   42.4070    6.1626 C.ar    1  UNL1        0.0596
      3 C          11.4087   41.6826    6.6648 C.ar    1  UNL1        0.1568
      4 C          13.7981   40.5956    9.0451 C.3     1  UNL1        0.1552
      5 N          11.7601   40.9919    7.7683 N.ar    1  UNL1       -0.1635
      6 N          13.0288   41.2640    8.0092 N.ar    1  UNL1       -0.2354
      7 C          15.2206   43.9129    6.5983 C.2     1  UNL1        0.2267
      8 O          14.3855   44.7021    6.0762 O.2     1  UNL1       -0.2748
      9 N          14.8334   42.5793    6.9449 N.am    1  UNL1       -0.2695
     10 H          15.5523   41.9275    7.1106 H       1  UNL1        0.1562
     11 C          17.5098   43.8125    5.6711 C.3     1  UNL1        0.0096
     12 C          16.6469   44.3312    6.8047 C.3     1  UNL1        0.0769
     13 C          17.2120   43.8446    8.1293 C.3     1  UNL1        0.0096
     14 C          10.0684   41.6362    6.0709 C.2     1  UNL1        0.2654
     15 O           9.8944   41.0612    4.9624 O.2     1  UNL1       -0.2684
     16 N           8.9647   42.2401    6.7514 N.am    1  UNL1       -0.2996
     17 H           9.1230   42.6577    7.6288 H       1  UNL1        0.1498
     18 C           7.6161   42.2633    6.2009 C.3     1  UNL1        0.0901
     19 C           6.8790   43.5237    6.6371 C.3     1  UNL1        0.0265
     20 C           6.8097   43.6292    8.1555 C.3     1  UNL1        0.0347
     21 C           5.5981   42.9424    8.6909 C.ar    1  UNL1        0.0073
     22 C           4.3373   43.5012    8.8206 C.ar    1  UNL1        0.0027
     23 C           3.4077   42.6078    9.3722 C.ar    1  UNL1        0.0072
     24 C           3.9284   41.3526    9.6815 C.ar    1  UNL1        0.0351
     25 S           5.5577   41.3694    9.2605 S.2     1  UNL1       -0.0908
@<TRIPOS>BOND
     1    11    12    1
     2    12    13    1
     3    12     7    1
     4     7     9   am
     5     2     3   ar
     6     3    14    1
     7     4     6    1
     8    14    16   am
     9    18    16    1
    10    18    19    1
    11    19    20    1
    12    20    21    1
    13    21    25   ar
    14    22    23   ar
    15    24    25   ar
    16     9     1    1
    17     6     5   ar
    18     6     1   ar
    19     7     8    2
    20     1     2   ar
    21     3     5   ar
    22    14    15    2
    23    21    22   ar
    24    23    24   ar
    25     9    10    1
    26    16    17    1
@<TRIPOS>MOLECULE
MolPort-044-423-548 CSSS14880536645 MCULE-6906365711 ZINC000675028112
 25 26 0 0 0
SMALL
GASTEIGER

@<TRIPOS>ATOM
      1 C           7.0705   42.3699    9.3497 C.ar    1  UNL1        0.1328
      2 C           8.2385   42.3717   10.0868 C.ar    1  UNL1        0.0596
      3 C           9.2111   42.4778    9.1003 C.ar    1  UNL1        0.1568
      4 C           6.4213   42.3063    6.9223 C.3     1  UNL1        0.1552
      5 N           8.6577   42.5039    7.8710 N.ar    1  UNL1       -0.1635
      6 N           7.3495   42.4383    8.0325 N.ar    1  UNL1       -0.2354
      7 C           4.6190   42.9965    9.5995 C.2     1  UNL1        0.2267
      8 O           4.7563   44.1056    9.0132 O.2     1  UNL1       -0.2748
      9 N           5.7664   42.2027    9.9188 N.am    1  UNL1       -0.2695
     10 H           5.6503   41.4847   10.5822 H       1  UNL1        0.1562
     11 C           3.2719   42.2051   11.5151 C.3     1  UNL1        0.0096
     12 C           3.2636   42.5194   10.0319 C.3     1  UNL1        0.0769
     13 C           2.8034   41.2925    9.2611 C.3     1  UNL1        0.0096
     14 C          10.6573   42.5254    9.3405 C.2     1  UNL1        0.2654
     15 O          11.1788   43.5700    9.8165 O.2     1  UNL1       -0.2684
     16 N          11.4692   41.3876    9.0370 N.am    1  UNL1       -0.2996
     17 H          11.0326   40.5751    8.6929 H       1  UNL1        0.1498
     18 C          12.9150   41.3804    9.2155 C.3     1  UNL1        0.0901
     19 C          13.6121   40.9270    7.9386 C.3     1  UNL1        0.0265
     20 C          13.5148   41.9853    6.8468 C.3     1  UNL1        0.0347
     21 C          14.7586   42.8066    6.7769 C.ar    1  UNL1        0.0073
     22 C          15.8896   42.6376    7.5585 C.ar    1  UNL1        0.0027
     23 C          16.8889   43.5776    7.2680 C.ar    1  UNL1        0.0072
     24 C          16.5510   44.4872    6.2675 C.ar    1  UNL1        0.0351
     25 S          14.9953   44.1070    5.7506 S.2     1  UNL1       -0.0908
@<TRIPOS>BOND
     1    11    12    1
     2    12    13    1
     3    12     7    1
     4     7     9   am
     5     2     3   ar
     6     3    14    1
     7     4     6    1
     8    14    16   am
     9    18    16    1
    10    18    19    1
    11    19    20    1
    12    20    21    1
    13    21    25   ar
    14    22    23   ar
    15    24    25   ar
    16     9     1    1
    17     6     5   ar
    18     6     1   ar
    19     7     8    2
    20     1     2   ar
    21     3     5   ar
    22    14    15    2
    23    21    22   ar
    24    23    24   ar
    25     9    10    1
    26    16    17    1
@<TRIPOS>MOLECULE
MolPort-044-423-548 CSSS14880536645 MCULE-6906365711 ZINC000675028112
 25 26 0 0 0
SMALL
GASTEIGER

@<TRIPOS>ATOM
      1 C           6.4643   41.5585    7.7784 C.ar    1  UNL1        0.1328
      2 C           7.5119   40.7843    7.3195 C.ar    1  UNL1        0.0596
      3 C           8.3283   41.7251    6.7041 C.ar    1  UNL1        0.1568
      4 C           5.7106   43.9479    7.5780 C.3     1  UNL1        0.1552
      5 N           7.7852   42.9578    6.7679 N.ar    1  UNL1       -0.1635
      6 N           6.6469   42.8471    7.4266 N.ar    1  UNL1       -0.2354
      7 C           5.0605   41.0714    9.8416 C.2     1  UNL1        0.2267
      8 O           6.0048   41.3122   10.6436 O.2     1  UNL1       -0.2748
      9 N           5.3050   41.0283    8.4320 N.am    1  UNL1       -0.2695
     10 H           4.6221   40.6003    7.8666 H       1  UNL1        0.1562
     11 C           2.6414   41.2998    9.3878 C.3     1  UNL1        0.0096
     12 C           3.6828   40.7609   10.3489 C.3     1  UNL1        0.0769
     13 C           3.4292   41.3306   11.7353 C.3     1  UNL1        0.0096
     14 C           9.6025   41.4331    6.0391 C.2     1  UNL1        0.2654
     15 O           9.6046   40.8997    4.8966 O.2     1  UNL1       -0.2684
     16 N          10.8363   41.7564    6.6866 N.am    1  UNL1       -0.2996
     17 H          10.8057   42.1982    7.5659 H       1  UNL1        0.1498
     18 C          12.1362   41.4596    6.0997 C.3     1  UNL1        0.0901
     19 C          13.2594   41.8929    7.0340 C.3     1  UNL1        0.0265
     20 C          14.1844   42.8994    6.3612 C.3     1  UNL1        0.0347
     21 C          15.4901   42.9968    7.0766 C.ar    1  UNL1        0.0073
     22 C          15.9648   42.1081    8.0271 C.ar    1  UNL1        0.0027
     23 C          17.2201   42.4792    8.5303 C.ar    1  UNL1        0.0072
     24 C          17.7342   43.6549    7.9864 C.ar    1  UNL1        0.0351
     25 S          16.6081   44.2254    6.8737 S.2     1  UNL1       -0.0908
@<TRIPOS>BOND
     1    11    12    1
     2    12    13    1
     3    12     7    1
     4     7     9   am
     5     2     3   ar
     6     3    14    1
     7     4     6    1
     8    14    16   am
     9    18    16    1
    10    18    19    1
    11    19    20    1
    12    20    21    1
    13    21    25   ar
    14    22    23   ar
    15    24    25   ar
    16     9     1    1
    17     6     5   ar
    18     6     1   ar
    19     7     8    2
    20     1     2   ar
    21     3     5   ar
    22    14    15    2
    23    21    22   ar
    24    23    24   ar
    25     9    10    1
    26    16    17    1
@<TRIPOS>MOLECULE
MolPort-044-423-548 CSSS14880536645 MCULE-6906365711 ZINC000675028112
 25 26 0 0 0
SMALL
GASTEIGER

@<TRIPOS>ATOM
      1 C           6.9808   41.4582    9.1501 C.ar    1  UNL1        0.1328
      2 C           8.1526   41.8279    9.7807 C.ar    1  UNL1        0.0596
      3 C           9.1108   41.5437    8.8156 C.ar    1  UNL1        0.1568
      4 C           6.3175   40.3307    7.0038 C.3     1  UNL1        0.1552
      5 N           8.5475   41.0154    7.7103 N.ar    1  UNL1       -0.1635
      6 N           7.2458   40.9673    7.9228 N.ar    1  UNL1       -0.2354
      7 C           4.7410   42.5554    9.6442 C.2     1  UNL1        0.2267
      8 O           5.1035   43.6838    9.2105 O.2     1  UNL1       -0.2748
      9 N           5.6917   41.4934    9.7741 N.am    1  UNL1       -0.2695
     10 H           5.4398   40.7262   10.3372 H       1  UNL1        0.1562
     11 C           3.3012   41.9858   11.5711 C.3     1  UNL1        0.0096
     12 C           3.3281   42.3233   10.0932 C.3     1  UNL1        0.0769
     13 C           2.6421   41.2141    9.3122 C.3     1  UNL1        0.0096
     14 C          10.5542   41.7540    8.9696 C.2     1  UNL1        0.2654
     15 O          11.0943   41.5878   10.0967 O.2     1  UNL1       -0.2684
     16 N          11.3432   42.1435    7.8419 N.am    1  UNL1       -0.2996
     17 H          10.9011   42.2388    6.9674 H       1  UNL1        0.1498
     18 C          12.7734   42.4052    7.9329 C.3     1  UNL1        0.0901
     19 C          13.4601   42.1060    6.6058 C.3     1  UNL1        0.0265
     20 C          14.4819   43.1802    6.2545 C.3     1  UNL1        0.0347
     21 C          15.6923   43.0798    7.1212 C.ar    1  UNL1        0.0073
     22 C          16.0032   42.0261    7.9649 C.ar    1  UNL1        0.0027
     23 C          17.2028   42.2316    8.6616 C.ar    1  UNL1        0.0072
     24 C          17.8352   43.4402    8.3760 C.ar    1  UNL1        0.0351
     25 S          16.8837   44.2482    7.2475 S.2     1  UNL1       -0.0908
@<TRIPOS>BOND
     1    11    12    1
     2    12    13    1
     3    12     7    1
     4     7     9   am
     5     2     3   ar
     6     3    14    1
     7     4     6    1
     8    14    16   am
     9    18    16    1
    10    18    19    1
    11    19    20    1
    12    20    21    1
    13    21    25   ar
    14    22    23   ar
    15    24    25   ar
    16     9     1    1
    17     6     5   ar
    18     6     1   ar
    19     7     8    2
    20     1     2   ar
    21     3     5   ar
    22    14    15    2
    23    21    22   ar
    24    23    24   ar
    25     9    10    1
    26    16    17    1
@<TRIPOS>MOLECULE
MolPort-044-423-548 CSSS14880536645 MCULE-6906365711 ZINC000675028112
 25 26 0 0 0
SMALL
GASTEIGER

@<TRIPOS>ATOM
      1 C          14.2110   40.9045    8.1553 C.ar    1  UNL1        0.1328
      2 C          12.8857   40.5208    8.0942 C.ar    1  UNL1        0.0596
      3 C          12.3374   41.4821    7.2541 C.ar    1  UNL1        0.1568
      4 C          15.6119   42.8326    7.3570 C.3     1  UNL1        0.1552
      5 N          13.2652   42.3840    6.8746 N.ar    1  UNL1       -0.1635
      6 N          14.4072   42.0232    7.4290 N.ar    1  UNL1       -0.2354
      7 C          14.9453   39.6728   10.2550 C.2     1  UNL1        0.2267
      8 O          13.8954   39.9623   10.8928 O.2     1  UNL1       -0.2748
      9 N          15.1938   40.2569    8.9722 N.am    1  UNL1       -0.2695
     10 H          16.1132   40.2099    8.6234 H       1  UNL1        0.1562
     11 C          17.3439   39.4307   10.8011 C.3     1  UNL1        0.0096
     12 C          15.9816   38.7672   10.8529 C.3     1  UNL1        0.0769
     13 C          16.0525   37.4193   10.1534 C.3     1  UNL1        0.0096
     14 C          10.9301   41.5445    6.8457 C.2     1  UNL1        0.2654
     15 O          10.6376   41.7610    5.6385 O.2     1  UNL1       -0.2684
     16 N           9.8960   41.3573    7.8161 N.am    1  UNL1       -0.2996
     17 H          10.1522   41.1617    8.7463 H       1  UNL1        0.1498
     18 C           8.4798   41.4439    7.4859 C.3     1  UNL1        0.0901
     19 C           7.6279   41.3617    8.7467 C.3     1  UNL1        0.0265
     20 C           7.4311   42.7360    9.3746 C.3     1  UNL1        0.0347
     21 C           6.1587   43.3644    8.9136 C.ar    1  UNL1        0.0073
     22 C           6.0500   44.4362    8.0429 C.ar    1  UNL1        0.0027
     23 C           4.7178   44.8094    7.8139 C.ar    1  UNL1        0.0072
     24 C           3.7784   44.0427    8.5010 C.ar    1  UNL1        0.0351
     25 S           4.6260   42.8968    9.3956 S.2     1  UNL1       -0.0908
@<TRIPOS>BOND
     1    11    12    1
     2    12    13    1
     3    12     7    1
     4     7     9   am
     5     2     3   ar
     6     3    14    1
     7     4     6    1
     8    14    16   am
     9    18    16    1
    10    18    19    1
    11    19    20    1
    12    20    21    1
    13    21    25   ar
    14    22    23   ar
    15    24    25   ar
    16     9     1    1
    17     6     5   ar
    18     6     1   ar
    19     7     8    2
    20     1     2   ar
    21     3     5   ar
    22    14    15    2
    23    21    22   ar
    24    23    24   ar
    25     9    10    1
    26    16    17    1
@<TRIPOS>MOLECULE
MolPort-044-423-548 CSSS14880536645 MCULE-6906365711 ZINC000675028112
 25 26 0 0 0
SMALL
GASTEIGER

@<TRIPOS>ATOM
      1 C          13.7573   39.1204   10.1138 C.ar    1  UNL1        0.1328
      2 C          13.1040   40.2704   10.5112 C.ar    1  UNL1        0.0596
      3 C          11.7801   39.8533   10.5712 C.ar    1  UNL1        0.1568
      4 C          13.1264   36.8052    9.3658 C.3     1  UNL1        0.1552
      5 N          11.6591   38.5613   10.2047 N.ar    1  UNL1       -0.1635
      6 N          12.8720   38.1209    9.9276 N.ar    1  UNL1       -0.2354
      7 C          16.1457   38.4679   10.6922 C.2     1  UNL1        0.2267
      8 O          15.8783   38.2387   11.9041 O.2     1  UNL1       -0.2748
      9 N          15.1610   39.0543    9.8349 N.am    1  UNL1       -0.2695
     10 H          15.4731   39.4433    8.9861 H       1  UNL1        0.1562
     11 C          17.8146   36.7091   10.2103 C.3     1  UNL1        0.0096
     12 C          17.5152   38.1939   10.1431 C.3     1  UNL1        0.0769
     13 C          18.6030   38.9593   10.8792 C.3     1  UNL1        0.0096
     14 C          10.6434   40.6991   10.9508 C.2     1  UNL1        0.2654
     15 O          10.5472   41.1246   12.1337 O.2     1  UNL1       -0.2684
     16 N           9.6511   41.0399    9.9786 N.am    1  UNL1       -0.2996
     17 H           9.7654   40.7178    9.0553 H       1  UNL1        0.1498
     18 C           8.4786   41.8436   10.2971 C.3     1  UNL1        0.0901
     19 C           7.2384   41.2788    9.6152 C.3     1  UNL1        0.0265
     20 C           6.9940   41.9448    8.2667 C.3     1  UNL1        0.0347
     21 C           5.8121   42.8540    8.3185 C.ar    1  UNL1        0.0073
     22 C           4.6711   42.6618    9.0799 C.ar    1  UNL1        0.0027
     23 C           3.7279   43.6843    8.9021 C.ar    1  UNL1        0.0072
     24 C           4.1162   44.6764    8.0036 C.ar    1  UNL1        0.0351
     25 S           5.6455   44.2650    7.4344 S.2     1  UNL1       -0.0908
@<TRIPOS>BOND
     1    11    12    1
     2    12    13    1
     3    12     7    1
     4     7     9   am
     5     2     3   ar
     6     3    14    1
     7     4     6    1
     8    14    16   am
     9    18    16    1
    10    18    19    1
    11    19    20    1
    12    20    21    1
    13    21    25   ar
    14    22    23   ar
    15    24    25   ar
    16     9     1    1
    17     6     5   ar
    18     6     1   ar
    19     7     8    2
    20     1     2   ar
    21     3     5   ar
    22    14    15    2
    23    21    22   ar
    24    23    24   ar
    25     9    10    1
    26    16    17    1
@<TRIPOS>MOLECULE
MolPort-044-423-548 CSSS14880536645 MCULE-6906365711 ZINC000675028112
 25 26 0 0 0
SMALL
GASTEIGER

@<TRIPOS>ATOM
      1 C           6.8481   42.4360    9.2709 C.ar    1  UNL1        0.1328
      2 C           8.0941   41.8959    9.5223 C.ar    1  UNL1        0.0596
      3 C           8.9469   42.8875    9.0532 C.ar    1  UNL1        0.1568
      4 C           5.9151   44.4584    8.1060 C.3     1  UNL1        0.1552
      5 N           8.2536   43.9211    8.5342 N.ar    1  UNL1       -0.1635
      6 N           6.9721   43.6374    8.6720 N.ar    1  UNL1       -0.2354
      7 C           5.0823   41.4454   10.8089 C.2     1  UNL1        0.2267
      8 O           5.8231   41.4956   11.8294 O.2     1  UNL1       -0.2748
      9 N           5.6150   41.7489    9.5156 N.am    1  UNL1       -0.2695
     10 H           5.0925   41.4628    8.7318 H       1  UNL1        0.1562
     11 C           2.9843   41.0613    9.5595 C.3     1  UNL1        0.0096
     12 C           3.6522   41.0044   10.9194 C.3     1  UNL1        0.0769
     13 C           2.8568   41.8449   11.9052 C.3     1  UNL1        0.0096
     14 C          10.4120   42.8252    9.0806 C.2     1  UNL1        0.2654
     15 O          11.0400   43.2902   10.0702 O.2     1  UNL1       -0.2684
     16 N          11.1221   42.2359    7.9877 N.am    1  UNL1       -0.2996
     17 H          10.6062   41.8550    7.2407 H       1  UNL1        0.1498
     18 C          12.5766   42.1754    7.9335 C.3     1  UNL1        0.0901
     19 C          13.0701   40.7775    8.2862 C.3     1  UNL1        0.0265
     20 C          14.5308   40.7968    8.7191 C.3     1  UNL1        0.0347
     21 C          14.7514   39.9363    9.9179 C.ar    1  UNL1        0.0073
     22 C          13.8008   39.6110   10.8714 C.ar    1  UNL1        0.0027
     23 C          14.3173   38.7960   11.8890 C.ar    1  UNL1        0.0072
     24 C          15.6675   38.4815   11.7457 C.ar    1  UNL1        0.0351
     25 S          16.2088   39.2299   10.3390 S.2     1  UNL1       -0.0908
@<TRIPOS>BOND
     1    11    12    1
     2    12    13    1
     3    12     7    1
     4     7     9   am
     5     2     3   ar
     6     3    14    1
     7     4     6    1
     8    14    16   am
     9    18    16    1
    10    18    19    1
    11    19    20    1
    12    20    21    1
    13    21    25   ar
    14    22    23   ar
    15    24    25   ar
    16     9     1    1
    17     6     5   ar
    18     6     1   ar
    19     7     8    2
    20     1     2   ar
    21     3     5   ar
    22    14    15    2
    23    21    22   ar
    24    23    24   ar
    25     9    10    1
    26    16    17    1
@<TRIPOS>MOLECULE
MolPort-044-423-548 CSSS14880536645 MCULE-6906365711 ZINC000675028112
 25 26 0 0 0
SMALL
GASTEIGER

@<TRIPOS>ATOM
      1 C           6.2278   42.7079    8.7080 C.ar    1  UNL1        0.1328
      2 C           7.1331   41.7585    8.2763 C.ar    1  UNL1        0.0596
      3 C           7.4775   42.2293    7.0153 C.ar    1  UNL1        0.1568
      4 C           5.0616   44.7163    7.7468 C.3     1  UNL1        0.1552
      5 N           6.8003   43.3557    6.7140 N.ar    1  UNL1       -0.1635
      6 N           6.0396   43.6416    7.7539 N.ar    1  UNL1       -0.2354
      7 C           4.2688   41.9563   10.1441 C.2     1  UNL1        0.2267
      8 O           3.5534   41.6444    9.1523 O.2     1  UNL1       -0.2748
      9 N           5.5173   42.6286    9.9496 N.am    1  UNL1       -0.2695
     10 H           5.9199   43.0718   10.7311 H       1  UNL1        0.1562
     11 C           3.8788   40.2071   11.8466 C.3     1  UNL1        0.0096
     12 C           3.7982   41.6906   11.5440 C.3     1  UNL1        0.0769
     13 C           2.3777   42.1757   11.7842 C.3     1  UNL1        0.0096
     14 C           8.4274   41.5847    6.1024 C.2     1  UNL1        0.2654
     15 O           8.0127   40.7454    5.2578 O.2     1  UNL1       -0.2684
     16 N           9.8181   41.9118    6.1714 N.am    1  UNL1       -0.2996
     17 H          10.1110   42.5912    6.8209 H       1  UNL1        0.1498
     18 C          10.8194   41.2820    5.3211 C.3     1  UNL1        0.0901
     19 C          11.3539   40.0114    5.9708 C.3     1  UNL1        0.0265
     20 C          11.9843   40.3037    7.3268 C.3     1  UNL1        0.0347
     21 C          11.9030   39.1175    8.2283 C.ar    1  UNL1        0.0073
     22 C          10.7394   38.5004    8.6572 C.ar    1  UNL1        0.0027
     23 C          10.9893   37.4176    9.5126 C.ar    1  UNL1        0.0072
     24 C          12.3397   37.1811    9.7633 C.ar    1  UNL1        0.0351
     25 S          13.2167   38.3353    8.9084 S.2     1  UNL1       -0.0908
@<TRIPOS>BOND
     1    11    12    1
     2    12    13    1
     3    12     7    1
     4     7     9   am
     5     2     3   ar
     6     3    14    1
     7     4     6    1
     8    14    16   am
     9    18    16    1
    10    18    19    1
    11    19    20    1
    12    20    21    1
    13    21    25   ar
    14    22    23   ar
    15    24    25   ar
    16     9     1    1
    17     6     5   ar
    18     6     1   ar
    19     7     8    2
    20     1     2   ar
    21     3     5   ar
    22    14    15    2
    23    21    22   ar
    24    23    24   ar
    25     9    10    1
    26    16    17    1
@<TRIPOS>MOLECULE
MolPort-044-423-548 CSSS14880536645 MCULE-6906365711 ZINC000675028112
 25 26 0 0 0
SMALL
GASTEIGER

@<TRIPOS>ATOM
      1 C           7.4967   42.4248    9.5530 C.ar    1  UNL1        0.1328
      2 C           8.5034   41.8569   10.3090 C.ar    1  UNL1        0.0596
      3 C           9.6150   42.0184    9.4913 C.ar    1  UNL1        0.1568
      4 C           7.2360   43.3653    7.2368 C.3     1  UNL1        0.1552
      5 N           9.2811   42.6089    8.3260 N.ar    1  UNL1       -0.1635
      6 N           7.9852   42.8545    8.3723 N.ar    1  UNL1       -0.2354
      7 C           5.1674   41.4100    9.6501 C.2     1  UNL1        0.2267
      8 O           5.4136   40.5510    8.7589 O.2     1  UNL1       -0.2748
      9 N           6.1176   42.4402    9.9407 N.am    1  UNL1       -0.2695
     10 H           5.7981   43.2215   10.4474 H       1  UNL1        0.1562
     11 C           3.7542   40.1928   11.2724 C.3     1  UNL1        0.0096
     12 C           3.8529   41.4101   10.3740 C.3     1  UNL1        0.0769
     13 C           2.6647   41.4325    9.4261 C.3     1  UNL1        0.0096
     14 C          10.9766   41.5831    9.8197 C.2     1  UNL1        0.2654
     15 O          11.9621   42.2765    9.4486 O.2     1  UNL1       -0.2684
     16 N          11.1813   40.3770   10.5610 N.am    1  UNL1       -0.2996
     17 H          10.3935   39.8696   10.8628 H       1  UNL1        0.1498
     18 C          12.5064   39.8678   10.8880 C.3     1  UNL1        0.0901
     19 C          12.9081   38.7569    9.9254 C.3     1  UNL1        0.0265
     20 C          13.4537   39.3230    8.6203 C.3     1  UNL1        0.0347
     21 C          14.7172   40.0837    8.8467 C.ar    1  UNL1        0.0073
     22 C          15.0645   41.2813    8.2434 C.ar    1  UNL1        0.0027
     23 C          16.3257   41.7413    8.6490 C.ar    1  UNL1        0.0072
     24 C          16.9747   40.9129    9.5627 C.ar    1  UNL1        0.0351
     25 S          15.9605   39.6030    9.8584 S.2     1  UNL1       -0.0908
@<TRIPOS>BOND
     1    11    12    1
     2    12    13    1
     3    12     7    1
     4     7     9   am
     5     2     3   ar
     6     3    14    1
     7     4     6    1
     8    14    16   am
     9    18    16    1
    10    18    19    1
    11    19    20    1
    12    20    21    1
    13    21    25   ar
    14    22    23   ar
    15    24    25   ar
    16     9     1    1
    17     6     5   ar
    18     6     1   ar
    19     7     8    2
    20     1     2   ar
    21     3     5   ar
    22    14    15    2
    23    21    22   ar
    24    23    24   ar
    25     9    10    1
    26    16    17    1
@<TRIPOS>MOLECULE
MolPort-044-423-548 CSSS14880536645 MCULE-6906365711 ZINC000675028112
 25 26 0 0 0
SMALL
GASTEIGER

@<TRIPOS>ATOM
      1 C           7.8096   42.0391    9.7444 C.ar    1  UNL1        0.1328
      2 C           8.5890   41.8608    8.6182 C.ar    1  UNL1        0.0596
      3 C           9.7335   41.2710    9.1404 C.ar    1  UNL1        0.1568
      4 C           8.0683   41.7635   12.2293 C.3     1  UNL1        0.1552
      5 N           9.6472   41.1414   10.4798 N.ar    1  UNL1       -0.1635
      6 N           8.4684   41.6124   10.8405 N.ar    1  UNL1       -0.2354
      7 C           5.2926   42.0726    9.3861 C.2     1  UNL1        0.2267
      8 O           5.2836   40.9791    8.7562 O.2     1  UNL1       -0.2748
      9 N           6.5341   42.6914    9.7386 N.am    1  UNL1       -0.2695
     10 H           6.5096   43.6409    9.9978 H       1  UNL1        0.1562
     11 C           2.8632   41.7863    9.7417 C.3     1  UNL1        0.0096
     12 C           4.0103   42.7775    9.7189 C.3     1  UNL1        0.0769
     13 C           3.6882   43.8958    8.7409 C.3     1  UNL1        0.0096
     14 C          10.9062   40.8635    8.3594 C.2     1  UNL1        0.2654
     15 O          11.5828   39.8632    8.7217 O.2     1  UNL1       -0.2684
     16 N          11.2760   41.5993    7.1899 N.am    1  UNL1       -0.2996
     17 H          10.7140   42.3589    6.9134 H       1  UNL1        0.1498
     18 C          12.4492   41.2721    6.3907 C.3     1  UNL1        0.0901
     19 C          13.7269   41.6301    7.1398 C.3     1  UNL1        0.0265
     20 C          14.1732   43.0533    6.8284 C.3     1  UNL1        0.0347
     21 C          15.6226   43.2435    7.1273 C.ar    1  UNL1        0.0073
     22 C          16.3844   42.4682    7.9859 C.ar    1  UNL1        0.0027
     23 C          17.7137   42.9071    8.0698 C.ar    1  UNL1        0.0072
     24 C          18.0021   44.0240    7.2876 C.ar    1  UNL1        0.0351
     25 S          16.5838   44.4573    6.4922 S.2     1  UNL1       -0.0908
@<TRIPOS>BOND
     1    11    12    1
     2    12    13    1
     3    12     7    1
     4     7     9   am
     5     2     3   ar
     6     3    14    1
     7     4     6    1
     8    14    16   am
     9    18    16    1
    10    18    19    1
    11    19    20    1
    12    20    21    1
    13    21    25   ar
    14    22    23   ar
    15    24    25   ar
    16     9     1    1
    17     6     5   ar
    18     6     1   ar
    19     7     8    2
    20     1     2   ar
    21     3     5   ar
    22    14    15    2
    23    21    22   ar
    24    23    24   ar
    25     9    10    1
    26    16    17    1
