@<TRIPOS>MOLECULE
Molport-053-367-154
 22 23 0 0 0
SMALL
GASTEIGER

@<TRIPOS>ATOM
      1 CL         11.0108   37.2743   10.1711 Cl      1  UNL1       -0.0822
      2 C          11.6595   38.6218    9.2500 C.ar    1  UNL1        0.0592
      3 C          12.7703   39.3419    9.7506 C.ar    1  UNL1        0.0116
      4 C          13.3076   40.4234    9.0237 C.ar    1  UNL1        0.0052
      5 C          12.7167   40.7347    7.8015 C.ar    1  UNL1        0.0505
      6 C          11.6450   40.0409    7.3144 C.ar    1  UNL1        0.0774
      7 C          12.9764   41.6936    6.8429 C.ar    1  UNL1        0.1550
      8 C          11.0831   38.9719    8.0102 C.ar    1  UNL1        0.0299
      9 N          11.2776   40.5496    6.1260 N.ar    1  UNL1       -0.2745
     10 N          12.0901   41.5577    5.8260 N.ar    1  UNL1       -0.1574
     11 H          10.5309   40.2289    5.5702 H       1  UNL1        0.1890
     12 C          14.1003   43.8148    6.0392 C.2     1  UNL1        0.2272
     13 N          14.0497   42.6475    6.8761 N.am    1  UNL1       -0.2680
     14 O          13.1466   44.0899    5.2613 O.2     1  UNL1       -0.2747
     15 H          14.7905   42.4935    7.5061 H       1  UNL1        0.1563
     16 C          15.2876   44.7345    6.1056 C.3     1  UNL1        0.0854
     17 C          16.5469   44.0857    5.4892 C.3     1  UNL1        0.0096
     18 C          17.7659   44.0944    6.4313 C.3     1  UNL1        0.0015
     19 C          17.3762   43.9913    7.9160 C.3     1  UNL1        0.0140
     20 C          18.0857   42.8241    8.6215 C.3     1  UNL1        0.0770
     21 C          17.1457   41.7402    8.9488 C.1     1  UNL1       -0.0779
     22 C          16.3741   40.8500    9.2159 C.1     1  UNL1       -0.0141
@<TRIPOS>BOND
     1     2     1    1
     2     3     4   ar
     3     5     6   ar
     4     6     9   ar
     5     7    13    1
     6     7     5   ar
     7    16    12    1
     8    16    17    1
     9    17    18    1
    10    18    19    1
    11    19    20    1
    12    20    21    1
    13     8     2   ar
    14     9    10   ar
    15    13    12   am
    16     2     3   ar
    17     4     5   ar
    18     6     8   ar
    19     7    10   ar
    20    12    14    2
    21    21    22    3
    22     9    11    1
    23    13    15    1
@<TRIPOS>MOLECULE
Molport-053-367-154
 22 23 0 0 0
SMALL
GASTEIGER

@<TRIPOS>ATOM
      1 CL         18.1207   43.8971    7.4508 Cl      1  UNL1       -0.0822
      2 C          16.5642   43.0835    7.4607 C.ar    1  UNL1        0.0592
      3 C          16.3222   42.0462    8.3927 C.ar    1  UNL1        0.0116
      4 C          15.0779   41.3846    8.4189 C.ar    1  UNL1        0.0052
      5 C          14.1066   41.8036    7.5128 C.ar    1  UNL1        0.0505
      6 C          14.3362   42.8055    6.6125 C.ar    1  UNL1        0.0774
      7 C          12.8086   41.4036    7.2662 C.ar    1  UNL1        0.1550
      8 C          15.5570   43.4753    6.5530 C.ar    1  UNL1        0.0299
      9 N          13.2377   43.0031    5.8640 N.ar    1  UNL1       -0.2745
     10 N          12.2952   42.1539    6.2604 N.ar    1  UNL1       -0.1574
     11 H          13.1463   43.6664    5.1423 H       1  UNL1        0.1890
     12 C          11.1271   39.5151    7.3873 C.2     1  UNL1        0.2272
     13 N          12.0854   40.3981    7.9935 N.am    1  UNL1       -0.2680
     14 O          10.9203   39.5470    6.1437 O.2     1  UNL1       -0.2747
     15 H          12.2552   40.3089    8.9591 H       1  UNL1        0.1563
     16 C          10.3792   38.5240    8.2348 C.3     1  UNL1        0.0854
     17 C          11.0426   38.3408    9.6179 C.3     1  UNL1        0.0096
     18 C          11.3788   36.8740    9.9483 C.3     1  UNL1        0.0015
     19 C          12.8436   36.5128    9.6472 C.3     1  UNL1        0.0140
     20 C          13.6994   36.4524   10.9229 C.3     1  UNL1        0.0770
     21 C          13.9856   37.7983   11.4446 C.1     1  UNL1       -0.0779
     22 C          14.2193   38.9037   11.8719 C.1     1  UNL1       -0.0141
@<TRIPOS>BOND
     1     2     1    1
     2     3     4   ar
     3     5     6   ar
     4     6     9   ar
     5     7    13    1
     6     7     5   ar
     7    16    12    1
     8    16    17    1
     9    17    18    1
    10    18    19    1
    11    19    20    1
    12    20    21    1
    13     8     2   ar
    14     9    10   ar
    15    13    12   am
    16     2     3   ar
    17     4     5   ar
    18     6     8   ar
    19     7    10   ar
    20    12    14    2
    21    21    22    3
    22     9    11    1
    23    13    15    1
@<TRIPOS>MOLECULE
Molport-053-367-154
 22 23 0 0 0
SMALL
GASTEIGER

@<TRIPOS>ATOM
      1 CL         15.9634   44.7259    6.2151 Cl      1  UNL1       -0.0822
      2 C          15.8293   43.2859    7.2116 C.ar    1  UNL1        0.0592
      3 C          14.5885   42.6114    7.3041 C.ar    1  UNL1        0.0116
      4 C          14.4625   41.4517    8.0953 C.ar    1  UNL1        0.0052
      5 C          15.6005   40.9966    8.7567 C.ar    1  UNL1        0.0505
      6 C          16.8004   41.6444    8.6688 C.ar    1  UNL1        0.0774
      7 C          15.8450   39.9206    9.5861 C.ar    1  UNL1        0.1550
      8 C          16.9590   42.7980    7.9028 C.ar    1  UNL1        0.0299
      9 N          17.7209   40.9956    9.4020 N.ar    1  UNL1       -0.2745
     10 N          17.1474   39.9358    9.9627 N.ar    1  UNL1       -0.1574
     11 H          18.6631   41.2611    9.5065 H       1  UNL1        0.1890
     12 C          14.8510   38.2881   11.2462 C.2     1  UNL1        0.2272
     13 N          14.8961   38.9052    9.9490 N.am    1  UNL1       -0.2680
     14 O          15.6265   38.6671   12.1657 O.2     1  UNL1       -0.2747
     15 H          14.2413   38.6164    9.2729 H       1  UNL1        0.1563
     16 C          13.8548   37.1970   11.5236 C.3     1  UNL1        0.0854
     17 C          13.1559   36.7205   10.2309 C.3     1  UNL1        0.0096
     18 C          11.6239   36.6227   10.3613 C.3     1  UNL1        0.0015
     19 C          10.8786   37.4805    9.3243 C.3     1  UNL1        0.0140
     20 C          11.6135   38.7974    9.0259 C.3     1  UNL1        0.0770
     21 C          11.3625   39.8037   10.0699 C.1     1  UNL1       -0.0779
     22 C          11.1573   40.6288   10.9280 C.1     1  UNL1       -0.0141
@<TRIPOS>BOND
     1     2     1    1
     2     3     4   ar
     3     5     6   ar
     4     6     9   ar
     5     7    13    1
     6     7     5   ar
     7    16    12    1
     8    16    17    1
     9    17    18    1
    10    18    19    1
    11    19    20    1
    12    20    21    1
    13     8     2   ar
    14     9    10   ar
    15    13    12   am
    16     2     3   ar
    17     4     5   ar
    18     6     8   ar
    19     7    10   ar
    20    12    14    2
    21    21    22    3
    22     9    11    1
    23    13    15    1
@<TRIPOS>MOLECULE
Molport-053-367-154
 22 23 0 0 0
SMALL
GASTEIGER

@<TRIPOS>ATOM
      1 CL         17.3983   44.0949    6.4800 Cl      1  UNL1       -0.0822
      2 C          16.7073   42.8349    7.4898 C.ar    1  UNL1        0.0592
      3 C          15.3346   42.5128    7.3664 C.ar    1  UNL1        0.0116
      4 C          14.7631   41.5017    8.1649 C.ar    1  UNL1        0.0052
      5 C          15.6009   40.8322    9.0535 C.ar    1  UNL1        0.0505
      6 C          16.9268   41.1395    9.1744 C.ar    1  UNL1        0.0774
      7 C          15.3958   39.8100    9.9583 C.ar    1  UNL1        0.1550
      8 C          17.5231   42.1387    8.4072 C.ar    1  UNL1        0.0299
      9 N          17.4937   40.3460   10.0990 N.ar    1  UNL1       -0.2745
     10 N          16.5662   39.5247   10.5804 N.ar    1  UNL1       -0.1574
     11 H          18.4388   40.3691   10.3740 H       1  UNL1        0.1890
     12 C          13.7663   37.9485    9.4211 C.2     1  UNL1        0.2272
     13 N          14.1598   39.1097   10.1709 N.am    1  UNL1       -0.2680
     14 O          14.5403   37.4456    8.5617 O.2     1  UNL1       -0.2747
     15 H          13.5494   39.4431   10.8676 H       1  UNL1        0.1563
     16 C          12.4309   37.3074    9.6770 C.3     1  UNL1        0.0854
     17 C          11.2672   38.2004    9.1922 C.3     1  UNL1        0.0096
     18 C          11.6598   39.1522    8.0461 C.3     1  UNL1        0.0015
     19 C          11.2682   40.6143    8.3210 C.3     1  UNL1        0.0140
     20 C          10.1213   40.7253    9.3388 C.3     1  UNL1        0.0770
     21 C           8.8131   40.8089    8.6702 C.1     1  UNL1       -0.0779
     22 C           7.7384   40.8774    8.1229 C.1     1  UNL1       -0.0141
@<TRIPOS>BOND
     1     2     1    1
     2     3     4   ar
     3     5     6   ar
     4     6     9   ar
     5     7    13    1
     6     7     5   ar
     7    16    12    1
     8    16    17    1
     9    17    18    1
    10    18    19    1
    11    19    20    1
    12    20    21    1
    13     8     2   ar
    14     9    10   ar
    15    13    12   am
    16     2     3   ar
    17     4     5   ar
    18     6     8   ar
    19     7    10   ar
    20    12    14    2
    21    21    22    3
    22     9    11    1
    23    13    15    1
@<TRIPOS>MOLECULE
Molport-053-367-154
 22 23 0 0 0
SMALL
GASTEIGER

@<TRIPOS>ATOM
      1 CL         17.1841   40.0130   10.7521 Cl      1  UNL1       -0.0822
      2 C          16.1645   40.6771    9.4855 C.ar    1  UNL1        0.0592
      3 C          14.9708   40.0079    9.1246 C.ar    1  UNL1        0.0116
      4 C          14.1374   40.5277    8.1137 C.ar    1  UNL1        0.0052
      5 C          14.5263   41.7203    7.5085 C.ar    1  UNL1        0.0505
      6 C          15.6774   42.3700    7.8552 C.ar    1  UNL1        0.0774
      7 C          13.9684   42.5037    6.5182 C.ar    1  UNL1        0.1550
      8 C          16.5289   41.8803    8.8440 C.ar    1  UNL1        0.0299
      9 N          15.8080   43.4858    7.1179 N.ar    1  UNL1       -0.2745
     10 N          14.7641   43.5797    6.3007 N.ar    1  UNL1       -0.1574
     11 H          16.5530   44.1270    7.1737 H       1  UNL1        0.1890
     12 C          11.5339   41.8100    6.5435 C.2     1  UNL1        0.2272
     13 N          12.7147   42.2618    5.8602 N.am    1  UNL1       -0.2680
     14 O          11.5330   41.6613    7.7958 O.2     1  UNL1       -0.2747
     15 H          12.6615   42.4137    4.8890 H       1  UNL1        0.1563
     16 C          10.2767   41.5348    5.7666 C.3     1  UNL1        0.0854
     17 C           9.5214   40.3062    6.3203 C.3     1  UNL1        0.0096
     18 C           8.0725   40.1940    5.8084 C.3     1  UNL1        0.0015
     19 C           7.0485   40.0181    6.9429 C.3     1  UNL1        0.0140
     20 C           7.1029   41.1725    7.9567 C.3     1  UNL1        0.0770
     21 C           7.1090   42.4813    7.2839 C.1     1  UNL1       -0.0779
     22 C           7.1146   43.5549    6.7303 C.1     1  UNL1       -0.0141
@<TRIPOS>BOND
     1     2     1    1
     2     3     4   ar
     3     5     6   ar
     4     6     9   ar
     5     7    13    1
     6     7     5   ar
     7    16    12    1
     8    16    17    1
     9    17    18    1
    10    18    19    1
    11    19    20    1
    12    20    21    1
    13     8     2   ar
    14     9    10   ar
    15    13    12   am
    16     2     3   ar
    17     4     5   ar
    18     6     8   ar
    19     7    10   ar
    20    12    14    2
    21    21    22    3
    22     9    11    1
    23    13    15    1
@<TRIPOS>MOLECULE
Molport-053-367-154
 22 23 0 0 0
SMALL
GASTEIGER

@<TRIPOS>ATOM
      1 CL         16.5976   38.9350   10.9327 Cl      1  UNL1       -0.0822
      2 C          15.1171   39.6870   10.3602 C.ar    1  UNL1        0.0592
      3 C          13.9295   39.5627   11.1199 C.ar    1  UNL1        0.0116
      4 C          12.7328   40.1629   10.6790 C.ar    1  UNL1        0.0052
      5 C          12.7756   40.8873    9.4903 C.ar    1  UNL1        0.0505
      6 C          13.9206   41.0106    8.7548 C.ar    1  UNL1        0.0774
      7 C          11.8273   41.5967    8.7810 C.ar    1  UNL1        0.1550
      8 C          15.1193   40.4235    9.1563 C.ar    1  UNL1        0.0299
      9 N          13.6799   41.7551    7.6623 N.ar    1  UNL1       -0.2745
     10 N          12.4029   42.1236    7.6722 N.ar    1  UNL1       -0.1574
     11 H          14.3395   41.9887    6.9698 H       1  UNL1        0.1890
     12 C          10.0148   42.9525    9.9147 C.2     1  UNL1        0.2272
     13 N          10.4619   41.8037    9.1758 N.am    1  UNL1       -0.2680
     14 O          10.8155   43.8832   10.2026 O.2     1  UNL1       -0.2747
     15 H           9.7965   41.1221    8.9269 H       1  UNL1        0.1563
     16 C           8.5740   43.0635   10.3292 C.3     1  UNL1        0.0854
     17 C           7.6190   42.8692    9.1306 C.3     1  UNL1        0.0096
     18 C           7.4605   44.1310    8.2608 C.3     1  UNL1        0.0015
     19 C           6.3150   44.0151    7.2405 C.3     1  UNL1        0.0140
     20 C           5.0145   44.6538    7.7545 C.3     1  UNL1        0.0770
     21 C           4.2950   43.7519    8.6682 C.1     1  UNL1       -0.0779
     22 C           3.7040   43.0108    9.4168 C.1     1  UNL1       -0.0141
@<TRIPOS>BOND
     1     2     1    1
     2     3     4   ar
     3     5     6   ar
     4     6     9   ar
     5     7    13    1
     6     7     5   ar
     7    16    12    1
     8    16    17    1
     9    17    18    1
    10    18    19    1
    11    19    20    1
    12    20    21    1
    13     8     2   ar
    14     9    10   ar
    15    13    12   am
    16     2     3   ar
    17     4     5   ar
    18     6     8   ar
    19     7    10   ar
    20    12    14    2
    21    21    22    3
    22     9    11    1
    23    13    15    1
@<TRIPOS>MOLECULE
Molport-053-367-154
 22 23 0 0 0
SMALL
GASTEIGER

@<TRIPOS>ATOM
      1 CL         17.6920   43.8643    6.4856 Cl      1  UNL1       -0.0822
      2 C          16.0297   43.3415    6.7054 C.ar    1  UNL1        0.0592
      3 C          14.9925   43.9862    5.9899 C.ar    1  UNL1        0.0116
      4 C          13.6529   43.5778    6.1497 C.ar    1  UNL1        0.0052
      5 C          13.4023   42.5163    7.0157 C.ar    1  UNL1        0.0505
      6 C          14.4011   41.8906    7.7072 C.ar    1  UNL1        0.0774
      7 C          12.2493   41.8611    7.3991 C.ar    1  UNL1        0.1550
      8 C          15.7352   42.2736    7.5799 C.ar    1  UNL1        0.0299
      9 N          13.8824   40.9096    8.4651 N.ar    1  UNL1       -0.2745
     10 N          12.5667   40.8796    8.2790 N.ar    1  UNL1       -0.1574
     11 H          14.3921   40.3125    9.0592 H       1  UNL1        0.1890
     12 C           9.7329   41.6111    7.5167 C.2     1  UNL1        0.2272
     13 N          10.9270   42.1257    6.9046 N.am    1  UNL1       -0.2680
     14 O           9.7952   40.9361    8.5802 O.2     1  UNL1       -0.2747
     15 H          10.8336   42.6899    6.1032 H       1  UNL1        0.1563
     16 C           8.3913   41.8982    6.9022 C.3     1  UNL1        0.0854
     17 C           7.5858   42.9155    7.7406 C.3     1  UNL1        0.0096
     18 C           6.4907   43.6430    6.9373 C.3     1  UNL1        0.0015
     19 C           5.8137   44.7717    7.7338 C.3     1  UNL1        0.0140
     20 C           4.2919   44.5778    7.8340 C.3     1  UNL1        0.0770
     21 C           3.9433   43.5520    8.8300 C.1     1  UNL1       -0.0779
     22 C           3.6573   42.7089    9.6463 C.1     1  UNL1       -0.0141
@<TRIPOS>BOND
     1     2     1    1
     2     3     4   ar
     3     5     6   ar
     4     6     9   ar
     5     7    13    1
     6     7     5   ar
     7    16    12    1
     8    16    17    1
     9    17    18    1
    10    18    19    1
    11    19    20    1
    12    20    21    1
    13     8     2   ar
    14     9    10   ar
    15    13    12   am
    16     2     3   ar
    17     4     5   ar
    18     6     8   ar
    19     7    10   ar
    20    12    14    2
    21    21    22    3
    22     9    11    1
    23    13    15    1
@<TRIPOS>MOLECULE
Molport-053-367-154
 22 23 0 0 0
SMALL
GASTEIGER

@<TRIPOS>ATOM
      1 CL         11.5436   35.6884   10.4630 Cl      1  UNL1       -0.0822
      2 C          12.3067   37.1977    9.9893 C.ar    1  UNL1        0.0592
      3 C          13.6519   37.1944    9.5495 C.ar    1  UNL1        0.0116
      4 C          14.2800   38.3950    9.1611 C.ar    1  UNL1        0.0052
      5 C          13.5233   39.5631    9.2115 C.ar    1  UNL1        0.0505
      6 C          12.2239   39.5700    9.6342 C.ar    1  UNL1        0.0774
      7 C          13.7975   40.8810    8.9055 C.ar    1  UNL1        0.1550
      8 C          11.5742   38.4033   10.0334 C.ar    1  UNL1        0.0299
      9 N          11.7375   40.8218    9.5847 N.ar    1  UNL1       -0.2745
     10 N          12.6912   41.6306    9.1343 N.ar    1  UNL1       -0.1574
     11 H          10.8265   41.0943    9.8395 H       1  UNL1        0.1890
     12 C          16.3021   41.2289    9.0270 C.2     1  UNL1        0.2272
     13 N          15.0330   41.3810    8.3700 N.am    1  UNL1       -0.2680
     14 O          16.3950   40.5777   10.1031 O.2     1  UNL1       -0.2747
     15 H          15.0092   41.8533    7.5065 H       1  UNL1        0.1563
     16 C          17.5389   41.8278    8.4175 C.3     1  UNL1        0.0854
     17 C          17.4596   43.3696    8.3646 C.3     1  UNL1        0.0096
     18 C          17.5704   43.9417    6.9383 C.3     1  UNL1        0.0015
     19 C          16.2885   44.6573    6.4788 C.3     1  UNL1        0.0140
     20 C          15.5770   43.9004    5.3455 C.3     1  UNL1        0.0770
     21 C          14.2212   43.4869    5.7412 C.1     1  UNL1       -0.0779
     22 C          13.1078   43.1477    6.0645 C.1     1  UNL1       -0.0141
@<TRIPOS>BOND
     1     2     1    1
     2     3     4   ar
     3     5     6   ar
     4     6     9   ar
     5     7    13    1
     6     7     5   ar
     7    16    12    1
     8    16    17    1
     9    17    18    1
    10    18    19    1
    11    19    20    1
    12    20    21    1
    13     8     2   ar
    14     9    10   ar
    15    13    12   am
    16     2     3   ar
    17     4     5   ar
    18     6     8   ar
    19     7    10   ar
    20    12    14    2
    21    21    22    3
    22     9    11    1
    23    13    15    1
@<TRIPOS>MOLECULE
Molport-053-367-154
 22 23 0 0 0
SMALL
GASTEIGER

@<TRIPOS>ATOM
      1 CL         12.5204   35.0478   10.4346 Cl      1  UNL1       -0.0822
      2 C          12.3502   36.6844    9.8202 C.ar    1  UNL1        0.0592
      3 C          13.4996   37.4016    9.4107 C.ar    1  UNL1        0.0116
      4 C          13.3827   38.7143    8.9108 C.ar    1  UNL1        0.0052
      5 C          12.1035   39.2581    8.8225 C.ar    1  UNL1        0.0505
      6 C          10.9914   38.5683    9.2156 C.ar    1  UNL1        0.0774
      7 C          11.6221   40.4758    8.3851 C.ar    1  UNL1        0.1550
      8 C          11.0709   37.2722    9.7222 C.ar    1  UNL1        0.0299
      9 N           9.8973   39.3249    9.0246 N.ar    1  UNL1       -0.2745
     10 N          10.2723   40.4920    8.5111 N.ar    1  UNL1       -0.1574
     11 H           8.9721   39.0589    9.2308 H       1  UNL1        0.1890
     12 C          12.4829   41.8147    6.4166 C.2     1  UNL1        0.2272
     13 N          12.4084   41.5395    7.8251 N.am    1  UNL1       -0.2680
     14 O          11.7927   41.1524    5.5947 O.2     1  UNL1       -0.2747
     15 H          12.9240   42.1107    8.4393 H       1  UNL1        0.1563
     16 C          13.3710   42.9186    5.9139 C.3     1  UNL1        0.0854
     17 C          14.6948   42.9914    6.7068 C.3     1  UNL1        0.0096
     18 C          15.4773   44.2985    6.4768 C.3     1  UNL1        0.0015
     19 C          16.7277   44.1020    5.6024 C.3     1  UNL1        0.0140
     20 C          17.9211   43.5662    6.4099 C.3     1  UNL1        0.0770
     21 C          17.7200   43.7502    7.8560 C.1     1  UNL1       -0.0779
     22 C          17.5550   43.8996    9.0433 C.1     1  UNL1       -0.0141
@<TRIPOS>BOND
     1     2     1    1
     2     3     4   ar
     3     5     6   ar
     4     6     9   ar
     5     7    13    1
     6     7     5   ar
     7    16    12    1
     8    16    17    1
     9    17    18    1
    10    18    19    1
    11    19    20    1
    12    20    21    1
    13     8     2   ar
    14     9    10   ar
    15    13    12   am
    16     2     3   ar
    17     4     5   ar
    18     6     8   ar
    19     7    10   ar
    20    12    14    2
    21    21    22    3
    22     9    11    1
    23    13    15    1
@<TRIPOS>MOLECULE
Molport-053-367-154
 22 23 0 0 0
SMALL
GASTEIGER

@<TRIPOS>ATOM
      1 CL          3.2852   45.2636    7.3951 Cl      1  UNL1       -0.0822
      2 C           4.3527   44.1848    8.2792 C.ar    1  UNL1        0.0592
      3 C           5.7471   44.2295    8.0411 C.ar    1  UNL1        0.0116
      4 C           6.6200   43.3747    8.7440 C.ar    1  UNL1        0.0052
      5 C           6.0591   42.5109    9.6816 C.ar    1  UNL1        0.0505
      6 C           4.7135   42.4659    9.9151 C.ar    1  UNL1        0.0774
      7 C           6.5933   41.5683   10.5369 C.ar    1  UNL1        0.1550
      8 C           3.8207   43.2903    9.2325 C.ar    1  UNL1        0.0299
      9 N           4.4478   41.5490   10.8609 N.ar    1  UNL1       -0.2745
     10 N           5.5924   40.9982   11.2521 N.ar    1  UNL1       -0.1574
     11 H           3.5541   41.3228   11.2064 H       1  UNL1        0.1890
     12 C           8.7057   41.4708   11.9287 C.2     1  UNL1        0.2272
     13 N           7.9899   41.2737   10.6982 N.am    1  UNL1       -0.2680
     14 O           8.1055   41.8646   12.9656 O.2     1  UNL1       -0.2747
     15 H           8.4833   40.9178    9.9242 H       1  UNL1        0.1563
     16 C          10.1795   41.1819   11.9937 C.3     1  UNL1        0.0854
     17 C          10.6758   40.4596   10.7216 C.3     1  UNL1        0.0096
     18 C          12.2039   40.5241   10.5354 C.3     1  UNL1        0.0015
     19 C          12.6313   40.4454    9.0597 C.3     1  UNL1        0.0140
     20 C          14.1493   40.6160    8.8863 C.3     1  UNL1        0.0770
     21 C          14.4653   41.6320    7.8697 C.1     1  UNL1       -0.0779
     22 C          14.7259   42.4649    7.0345 C.1     1  UNL1       -0.0141
@<TRIPOS>BOND
     1     2     1    1
     2     3     4   ar
     3     5     6   ar
     4     6     9   ar
     5     7    13    1
     6     7     5   ar
     7    16    12    1
     8    16    17    1
     9    17    18    1
    10    18    19    1
    11    19    20    1
    12    20    21    1
    13     8     2   ar
    14     9    10   ar
    15    13    12   am
    16     2     3   ar
    17     4     5   ar
    18     6     8   ar
    19     7    10   ar
    20    12    14    2
    21    21    22    3
    22     9    11    1
    23    13    15    1
