@<TRIPOS>MOLECULE
Molport-047-885-905 PubChem-165928730
 23 24 0 0 0
SMALL
GASTEIGER

@<TRIPOS>ATOM
      1 C           9.8176   41.2482   10.6060 C.2     1  UNL1        0.4068
      2 O          10.2162   41.4215   11.7905 O.2     1  UNL1       -0.2260
      3 N          10.7321   40.8574    9.5758 N.am    1  UNL1       -0.2336
      4 H          10.3648   40.7375    8.6703 H       1  UNL1        0.1597
      5 C          12.1349   40.6259    9.7486 C.ar    1  UNL1        0.1580
      6 C          14.0777   39.9494   10.4629 C.ar    1  UNL1        0.0980
      7 C          12.7227   39.8534   10.7391 C.ar    1  UNL1        0.0565
      8 N          13.0618   41.1505    8.9319 N.ar    1  UNL1       -0.1539
      9 N          14.2311   40.7370    9.3824 N.ar    1  UNL1       -0.2483
     10 C          15.4996   41.0580    8.7523 C.3     1  UNL1        0.1276
     11 C          15.3173   42.2140    7.7835 C.3     1  UNL1        0.0275
     12 C          16.6513   42.8925    7.5094 C.3     1  UNL1        0.0182
     13 C          16.4581   44.2804    6.9150 C.3     1  UNL1        0.1055
     14 C          15.6201   44.2132    5.7135 C.1     1  UNL1        0.0731
     15 N          14.9583   44.1600    4.7658 N.1     1  UNL1       -0.1959
     16 O           8.4746   41.4352   10.2802 O.3     1  UNL1       -0.4294
     17 C           7.5057   41.7808   11.2597 C.3     1  UNL1        0.2367
     18 C           3.5701   40.8734    9.8291 C.ar    1  UNL1       -0.0000
     19 C           4.5153   41.4362    8.9657 C.ar    1  UNL1       -0.0002
     20 C           5.8018   41.7263    9.4307 C.ar    1  UNL1       -0.0007
     21 C           6.1456   41.4482   10.7581 C.ar    1  UNL1        0.0213
     22 C           5.1968   40.8930   11.6236 C.ar    1  UNL1       -0.0007
     23 C           3.9104   40.6030   11.1584 C.ar    1  UNL1       -0.0002
@<TRIPOS>BOND
     1    19    20   ar
     2    21    22   ar
     3    23    18   ar
     4    17    21    1
     5    17    16    1
     6     1    16    1
     7     1     3   am
     8     7     5   ar
     9    10     9    1
    10    10    11    1
    11    11    12    1
    12    12    13    1
    13    13    14    1
    14     3     5    1
    15     9     8   ar
    16     9     6   ar
    17    18    19   ar
    18    20    21   ar
    19    22    23   ar
    20     1     2    2
    21     5     8   ar
    22     6     7   ar
    23    14    15    3
    24     3     4    1
@<TRIPOS>MOLECULE
Molport-047-885-905 PubChem-165928730
 23 24 0 0 0
SMALL
GASTEIGER

@<TRIPOS>ATOM
      1 C          12.2671   41.9963    6.3304 C.2     1  UNL1        0.4068
      2 O          11.9315   42.1387    7.5383 O.2     1  UNL1       -0.2260
      3 N          11.3415   41.4755    5.3702 N.am    1  UNL1       -0.2336
      4 H          11.6588   41.3858    4.4425 H       1  UNL1        0.1597
      5 C           9.9939   41.0738    5.6421 C.ar    1  UNL1        0.1580
      6 C           8.1600   39.9328    5.9211 C.ar    1  UNL1        0.0980
      7 C           9.4898   39.7844    5.5588 C.ar    1  UNL1        0.0565
      8 N           9.0433   41.9397    6.0267 N.ar    1  UNL1       -0.1539
      9 N           7.9394   41.2341    6.1842 N.ar    1  UNL1       -0.2483
     10 C           6.6774   41.7966    6.6317 C.3     1  UNL1        0.1276
     11 C           6.6510   43.2904    6.3561 C.3     1  UNL1        0.0275
     12 C           6.2172   44.0522    7.5996 C.3     1  UNL1        0.0182
     13 C           5.7606   43.1061    8.7010 C.3     1  UNL1        0.1055
     14 C           4.3220   43.2545    8.9429 C.1     1  UNL1        0.0731
     15 N           3.1867   43.3714    9.1345 N.1     1  UNL1       -0.1959
     16 O          13.5502   42.3453    5.9100 O.3     1  UNL1       -0.4294
     17 C          14.1415   43.5892    6.2573 C.3     1  UNL1        0.2367
     18 C          17.8488   42.9364    8.3039 C.ar    1  UNL1       -0.0000
     19 C          16.7911   42.0367    8.4692 C.ar    1  UNL1       -0.0002
     20 C          15.5834   42.2460    7.7962 C.ar    1  UNL1       -0.0007
     21 C          15.4346   43.3523    6.9527 C.ar    1  UNL1        0.0213
     22 C          16.4904   44.2566    6.7944 C.ar    1  UNL1       -0.0007
     23 C          17.6980   44.0471    7.4675 C.ar    1  UNL1       -0.0002
@<TRIPOS>BOND
     1    19    20   ar
     2    21    22   ar
     3    23    18   ar
     4    17    21    1
     5    17    16    1
     6     1    16    1
     7     1     3   am
     8     7     5   ar
     9    10     9    1
    10    10    11    1
    11    11    12    1
    12    12    13    1
    13    13    14    1
    14     3     5    1
    15     9     8   ar
    16     9     6   ar
    17    18    19   ar
    18    20    21   ar
    19    22    23   ar
    20     1     2    2
    21     5     8   ar
    22     6     7   ar
    23    14    15    3
    24     3     4    1
@<TRIPOS>MOLECULE
Molport-047-885-905 PubChem-165928730
 23 24 0 0 0
SMALL
GASTEIGER

@<TRIPOS>ATOM
      1 C          12.0987   40.4657    9.1524 C.2     1  UNL1        0.4068
      2 O          12.2135   40.6239   10.3989 O.2     1  UNL1       -0.2260
      3 N          13.2541   40.4532    8.3068 N.am    1  UNL1       -0.2336
      4 H          13.1038   40.3267    7.3421 H       1  UNL1        0.1597
      5 C          14.6094   40.6087    8.7428 C.ar    1  UNL1        0.1580
      6 C          16.5360   40.3743    9.7307 C.ar    1  UNL1        0.0980
      7 C          15.2687   39.8159    9.6702 C.ar    1  UNL1        0.0565
      8 N          15.4149   41.5748    8.2745 N.ar    1  UNL1       -0.1539
      9 N          16.5734   41.4226    8.8875 N.ar    1  UNL1       -0.2483
     10 C          17.7372   42.2538    8.6346 C.3     1  UNL1        0.1276
     11 C          17.6193   42.9052    7.2671 C.3     1  UNL1        0.0275
     12 C          16.8654   44.2228    7.3698 C.3     1  UNL1        0.0182
     13 C          16.4754   44.7496    5.9961 C.3     1  UNL1        0.1055
     14 C          15.0294   44.6229    5.7882 C.1     1  UNL1        0.0731
     15 N          13.8882   44.5237    5.6241 N.1     1  UNL1       -0.1959
     16 O          10.8395   40.2999    8.5764 O.3     1  UNL1       -0.4294
     17 C          10.4474   39.0777    7.9681 C.3     1  UNL1        0.2367
     18 C           9.9458   39.6253    3.7482 C.ar    1  UNL1       -0.0000
     19 C           9.0863   38.7741    4.4498 C.ar    1  UNL1       -0.0002
     20 C           9.2457   38.6004    5.8281 C.ar    1  UNL1       -0.0007
     21 C          10.2614   39.2825    6.5068 C.ar    1  UNL1        0.0213
     22 C          11.1263   40.1275    5.8027 C.ar    1  UNL1       -0.0007
     23 C          10.9666   40.3010    4.4245 C.ar    1  UNL1       -0.0002
@<TRIPOS>BOND
     1    19    20   ar
     2    21    22   ar
     3    23    18   ar
     4    17    21    1
     5    17    16    1
     6     1    16    1
     7     1     3   am
     8     7     5   ar
     9    10     9    1
    10    10    11    1
    11    11    12    1
    12    12    13    1
    13    13    14    1
    14     3     5    1
    15     9     8   ar
    16     9     6   ar
    17    18    19   ar
    18    20    21   ar
    19    22    23   ar
    20     1     2    2
    21     5     8   ar
    22     6     7   ar
    23    14    15    3
    24     3     4    1
@<TRIPOS>MOLECULE
Molport-047-885-905 PubChem-165928730
 23 24 0 0 0
SMALL
GASTEIGER

@<TRIPOS>ATOM
      1 C          11.4520   40.1044    9.8632 C.2     1  UNL1        0.4068
      2 O          11.6221   40.4750   11.0572 O.2     1  UNL1       -0.2260
      3 N          12.5718   39.7923    9.0272 N.am    1  UNL1       -0.2336
      4 H          12.3787   39.5091    8.1043 H       1  UNL1        0.1597
      5 C          13.9484   39.8564    9.4173 C.ar    1  UNL1        0.1580
      6 C          15.8937   39.4764   10.3195 C.ar    1  UNL1        0.0980
      7 C          14.5966   38.9885   10.2832 C.ar    1  UNL1        0.0565
      8 N          14.7876   40.7993    8.9612 N.ar    1  UNL1       -0.1539
      9 N          15.9575   40.5587    9.5221 N.ar    1  UNL1       -0.2483
     10 C          17.1547   41.3384    9.2613 C.3     1  UNL1        0.1276
     11 C          16.9422   42.2188    8.0415 C.3     1  UNL1        0.0275
     12 C          17.8116   43.4644    8.1278 C.3     1  UNL1        0.0182
     13 C          17.9468   44.1439    6.7725 C.3     1  UNL1        0.1055
     14 C          16.6358   44.5841    6.2849 C.1     1  UNL1        0.0731
     15 N          15.6014   44.9312    5.8994 N.1     1  UNL1       -0.1959
     16 O          10.1655   39.9924    9.3368 O.3     1  UNL1       -0.4294
     17 C           9.9246   39.4225    8.0582 C.3     1  UNL1        0.2367
     18 C           6.8145   41.6297    6.1052 C.ar    1  UNL1       -0.0000
     19 C           7.9586   42.2903    6.5638 C.ar    1  UNL1       -0.0002
     20 C           8.9766   41.5691    7.1953 C.ar    1  UNL1       -0.0007
     21 C           8.8537   40.1856    7.3633 C.ar    1  UNL1        0.0213
     22 C           7.7050   39.5266    6.9118 C.ar    1  UNL1       -0.0007
     23 C           6.6872   40.2481    6.2803 C.ar    1  UNL1       -0.0002
@<TRIPOS>BOND
     1    19    20   ar
     2    21    22   ar
     3    23    18   ar
     4    17    21    1
     5    17    16    1
     6     1    16    1
     7     1     3   am
     8     7     5   ar
     9    10     9    1
    10    10    11    1
    11    11    12    1
    12    12    13    1
    13    13    14    1
    14     3     5    1
    15     9     8   ar
    16     9     6   ar
    17    18    19   ar
    18    20    21   ar
    19    22    23   ar
    20     1     2    2
    21     5     8   ar
    22     6     7   ar
    23    14    15    3
    24     3     4    1
@<TRIPOS>MOLECULE
Molport-047-885-905 PubChem-165928730
 23 24 0 0 0
SMALL
GASTEIGER

@<TRIPOS>ATOM
      1 C           9.3441   41.5516    9.4611 C.2     1  UNL1        0.4068
      2 O           9.6292   42.3432   10.4013 O.2     1  UNL1       -0.2260
      3 N          10.3422   40.6917    8.9003 N.am    1  UNL1       -0.2336
      4 H          10.0624   40.0956    8.1684 H       1  UNL1        0.1597
      5 C          11.7124   40.6237    9.3117 C.ar    1  UNL1        0.1580
      6 C          13.5535   40.3246   10.4357 C.ar    1  UNL1        0.0980
      7 C          12.1768   40.2111   10.5516 C.ar    1  UNL1        0.0565
      8 N          12.7293   40.9613    8.5034 N.ar    1  UNL1       -0.1539
      9 N          13.8346   40.7811    9.2012 N.ar    1  UNL1       -0.2483
     10 C          15.1692   41.0025    8.6731 C.3     1  UNL1        0.1276
     11 C          15.1703   42.2217    7.7665 C.3     1  UNL1        0.0275
     12 C          13.8013   42.4115    7.1304 C.3     1  UNL1        0.0182
     13 C          13.9068   43.1032    5.7786 C.3     1  UNL1        0.1055
     14 C          14.8029   44.2609    5.8617 C.1     1  UNL1        0.0731
     15 N          15.5099   45.1745    5.9280 N.1     1  UNL1       -0.1959
     16 O           8.0470   41.5014    8.9513 O.3     1  UNL1       -0.4294
     17 C           6.9096   41.7366    9.7689 C.3     1  UNL1        0.2367
     18 C           4.4103   44.6867    7.9225 C.ar    1  UNL1       -0.0000
     19 C           3.8918   43.8579    8.9224 C.ar    1  UNL1       -0.0002
     20 C           4.7091   42.8995    9.5297 C.ar    1  UNL1       -0.0007
     21 C           6.0474   42.7734    9.1415 C.ar    1  UNL1        0.0213
     22 C           6.5631   43.5973    8.1351 C.ar    1  UNL1       -0.0007
     23 C           5.7456   44.5556    7.5280 C.ar    1  UNL1       -0.0002
@<TRIPOS>BOND
     1    19    20   ar
     2    21    22   ar
     3    23    18   ar
     4    17    21    1
     5    17    16    1
     6     1    16    1
     7     1     3   am
     8     7     5   ar
     9    10     9    1
    10    10    11    1
    11    11    12    1
    12    12    13    1
    13    13    14    1
    14     3     5    1
    15     9     8   ar
    16     9     6   ar
    17    18    19   ar
    18    20    21   ar
    19    22    23   ar
    20     1     2    2
    21     5     8   ar
    22     6     7   ar
    23    14    15    3
    24     3     4    1
@<TRIPOS>MOLECULE
Molport-047-885-905 PubChem-165928730
 23 24 0 0 0
SMALL
GASTEIGER

@<TRIPOS>ATOM
      1 C          11.7864   40.4635    9.4754 C.2     1  UNL1        0.4068
      2 O          11.9831   40.7837   10.6798 O.2     1  UNL1       -0.2260
      3 N          12.8871   40.2723    8.5798 N.am    1  UNL1       -0.2336
      4 H          12.6734   40.0238    7.6514 H       1  UNL1        0.1597
      5 C          14.2720   40.4111    8.9174 C.ar    1  UNL1        0.1580
      6 C          16.2680   40.1373    9.7443 C.ar    1  UNL1        0.0980
      7 C          14.9989   39.5796    9.7562 C.ar    1  UNL1        0.0565
      8 N          15.0408   41.3983    8.4319 N.ar    1  UNL1       -0.1539
      9 N          16.2425   41.2216    8.9474 N.ar    1  UNL1       -0.2483
     10 C          17.3847   42.0653    8.6432 C.3     1  UNL1        0.1276
     11 C          17.1855   42.7382    7.2957 C.3     1  UNL1        0.0275
     12 C          16.8396   44.2081    7.4822 C.3     1  UNL1        0.0182
     13 C          16.1321   44.7730    6.2586 C.3     1  UNL1        0.1055
     14 C          14.7585   44.2659    6.1789 C.1     1  UNL1        0.0731
     15 N          13.6743   43.8663    6.1160 N.1     1  UNL1       -0.1959
     16 O          10.4885   40.2901    8.9955 O.3     1  UNL1       -0.4294
     17 C           9.6686   41.3921    8.6334 C.3     1  UNL1        0.2367
     18 C           6.2547   41.5031   11.2202 C.ar    1  UNL1       -0.0000
     19 C           7.5409   41.6297   11.7542 C.ar    1  UNL1       -0.0002
     20 C           8.6548   41.6001   10.9095 C.ar    1  UNL1       -0.0007
     21 C           8.4827   41.4497    9.5292 C.ar    1  UNL1        0.0213
     22 C           7.1960   41.3146    8.9965 C.ar    1  UNL1       -0.0007
     23 C           6.0823   41.3442    9.8415 C.ar    1  UNL1       -0.0002
@<TRIPOS>BOND
     1    19    20   ar
     2    21    22   ar
     3    23    18   ar
     4    17    21    1
     5    17    16    1
     6     1    16    1
     7     1     3   am
     8     7     5   ar
     9    10     9    1
    10    10    11    1
    11    11    12    1
    12    12    13    1
    13    13    14    1
    14     3     5    1
    15     9     8   ar
    16     9     6   ar
    17    18    19   ar
    18    20    21   ar
    19    22    23   ar
    20     1     2    2
    21     5     8   ar
    22     6     7   ar
    23    14    15    3
    24     3     4    1
@<TRIPOS>MOLECULE
Molport-047-885-905 PubChem-165928730
 23 24 0 0 0
SMALL
GASTEIGER

@<TRIPOS>ATOM
      1 C           8.6213   40.9438    7.9638 C.2     1  UNL1        0.4068
      2 O           9.2313   41.6822    7.1426 O.2     1  UNL1       -0.2260
      3 N           9.3345   39.9957    8.7655 N.am    1  UNL1       -0.2336
      4 H           8.8062   39.4461    9.3884 H       1  UNL1        0.1597
      5 C          10.7498   39.7778    8.7397 C.ar    1  UNL1        0.1580
      6 C          12.7394   38.8969    8.8311 C.ar    1  UNL1        0.0980
      7 C          11.3992   38.5767    8.9826 C.ar    1  UNL1        0.0565
      8 N          11.6282   40.7535    8.4609 N.ar    1  UNL1       -0.1539
      9 N          12.8266   40.2052    8.5274 N.ar    1  UNL1       -0.2483
     10 C          14.0599   40.9222    8.2554 C.3     1  UNL1        0.1276
     11 C          13.7448   42.3312    7.7828 C.3     1  UNL1        0.0275
     12 C          14.2323   42.5341    6.3558 C.3     1  UNL1        0.0182
     13 C          13.9993   43.9629    5.8858 C.3     1  UNL1        0.1055
     14 C          15.2617   44.7086    5.8613 C.1     1  UNL1        0.0731
     15 N          16.2577   45.2974    5.8413 N.1     1  UNL1       -0.1959
     16 O           7.2371   41.0397    8.1042 O.3     1  UNL1       -0.4294
     17 C           6.5975   42.2697    8.4135 C.3     1  UNL1        0.2367
     18 C           3.5738   41.6567   11.3868 C.ar    1  UNL1       -0.0000
     19 C           3.3210   42.4925   10.2945 C.ar    1  UNL1       -0.0002
     20 C           4.3053   42.6875    9.3206 C.ar    1  UNL1       -0.0007
     21 C           5.5412   42.0419    9.4355 C.ar    1  UNL1        0.0213
     22 C           5.7965   41.2125   10.5330 C.ar    1  UNL1       -0.0007
     23 C           4.8120   41.0177   11.5067 C.ar    1  UNL1       -0.0002
@<TRIPOS>BOND
     1    19    20   ar
     2    21    22   ar
     3    23    18   ar
     4    17    21    1
     5    17    16    1
     6     1    16    1
     7     1     3   am
     8     7     5   ar
     9    10     9    1
    10    10    11    1
    11    11    12    1
    12    12    13    1
    13    13    14    1
    14     3     5    1
    15     9     8   ar
    16     9     6   ar
    17    18    19   ar
    18    20    21   ar
    19    22    23   ar
    20     1     2    2
    21     5     8   ar
    22     6     7   ar
    23    14    15    3
    24     3     4    1
@<TRIPOS>MOLECULE
Molport-047-885-905 PubChem-165928730
 23 24 0 0 0
SMALL
GASTEIGER

@<TRIPOS>ATOM
      1 C          12.0436   41.7937    7.5389 C.2     1  UNL1        0.4068
      2 O          11.1251   41.9153    6.6824 O.2     1  UNL1       -0.2260
      3 N          11.7670   41.9462    8.9354 N.am    1  UNL1       -0.2336
      4 H          12.5227   41.8410    9.5575 H       1  UNL1        0.1597
      5 C          10.4862   42.2385    9.5057 C.ar    1  UNL1        0.1580
      6 C           8.8336   43.1353   10.6046 C.ar    1  UNL1        0.0980
      7 C          10.1855   43.3003   10.3458 C.ar    1  UNL1        0.0565
      8 N           9.3997   41.4862    9.2710 N.ar    1  UNL1       -0.1539
      9 N           8.4114   42.0387    9.9486 N.ar    1  UNL1       -0.2483
     10 C           7.0460   41.5440    9.9346 C.3     1  UNL1        0.1276
     11 C           6.5067   41.4760   11.3533 C.3     1  UNL1        0.0275
     12 C           5.0026   41.7049   11.3611 C.3     1  UNL1        0.0182
     13 C           4.2545   40.5089   10.7895 C.3     1  UNL1        0.1055
     14 C           3.1887   40.9530    9.8856 C.1     1  UNL1        0.0731
     15 N           2.3476   41.3028    9.1720 N.1     1  UNL1       -0.1959
     16 O          13.3481   41.5077    7.1370 O.3     1  UNL1       -0.4294
     17 C          14.3887   41.2755    8.0755 C.3     1  UNL1        0.2367
     18 C          17.6399   43.9583    7.3069 C.ar    1  UNL1       -0.0000
     19 C          16.4273   44.1170    6.6288 C.ar    1  UNL1       -0.0002
     20 C          15.3640   43.2456    6.8844 C.ar    1  UNL1       -0.0007
     21 C          15.5108   42.2183    7.8227 C.ar    1  UNL1        0.0213
     22 C          16.7272   42.0548    8.4945 C.ar    1  UNL1       -0.0007
     23 C          17.7904   42.9264    8.2388 C.ar    1  UNL1       -0.0002
@<TRIPOS>BOND
     1    19    20   ar
     2    21    22   ar
     3    23    18   ar
     4    17    21    1
     5    17    16    1
     6     1    16    1
     7     1     3   am
     8     7     5   ar
     9    10     9    1
    10    10    11    1
    11    11    12    1
    12    12    13    1
    13    13    14    1
    14     3     5    1
    15     9     8   ar
    16     9     6   ar
    17    18    19   ar
    18    20    21   ar
    19    22    23   ar
    20     1     2    2
    21     5     8   ar
    22     6     7   ar
    23    14    15    3
    24     3     4    1
@<TRIPOS>MOLECULE
Molport-047-885-905 PubChem-165928730
 23 24 0 0 0
SMALL
GASTEIGER

@<TRIPOS>ATOM
      1 C           9.0287   41.5147    9.5142 C.2     1  UNL1        0.4068
      2 O           9.5946   42.5889    9.8570 O.2     1  UNL1       -0.2260
      3 N           9.7589   40.2837    9.4724 N.am    1  UNL1       -0.2336
      4 H           9.2656   39.4775    9.1970 H       1  UNL1        0.1597
      5 C          11.1447   40.1238    9.7964 C.ar    1  UNL1        0.1580
      6 C          13.0526   39.9684   10.8350 C.ar    1  UNL1        0.0980
      7 C          11.7040   40.1936   11.0636 C.ar    1  UNL1        0.0565
      8 N          12.0817   39.8743    8.8684 N.ar    1  UNL1       -0.1539
      9 N          13.2302   39.7902    9.5128 N.ar    1  UNL1       -0.2483
     10 C          14.4981   39.4935    8.8698 C.3     1  UNL1        0.1276
     11 C          15.5247   40.5506    9.2398 C.3     1  UNL1        0.0275
     12 C          16.5895   39.9602   10.1522 C.3     1  UNL1        0.0182
     13 C          16.6891   38.4503    9.9873 C.3     1  UNL1        0.1055
     14 C          16.2677   37.7698   11.2160 C.1     1  UNL1        0.0731
     15 N          15.9357   37.2323   12.1855 N.1     1  UNL1       -0.1959
     16 O           7.6774   41.5092    9.1693 O.3     1  UNL1       -0.4294
     17 C           6.6805   42.0387   10.0316 C.3     1  UNL1        0.2367
     18 C           4.1381   44.7306    7.8756 C.ar    1  UNL1       -0.0000
     19 C           5.5228   44.7736    7.6857 C.ar    1  UNL1       -0.0002
     20 C           6.3522   43.8907    8.3843 C.ar    1  UNL1       -0.0007
     21 C           5.7965   42.9602    9.2690 C.ar    1  UNL1        0.0213
     22 C           4.4116   42.9234    9.4649 C.ar    1  UNL1       -0.0007
     23 C           3.5825   43.8064    8.7661 C.ar    1  UNL1       -0.0002
@<TRIPOS>BOND
     1    19    20   ar
     2    21    22   ar
     3    23    18   ar
     4    17    21    1
     5    17    16    1
     6     1    16    1
     7     1     3   am
     8     7     5   ar
     9    10     9    1
    10    10    11    1
    11    11    12    1
    12    12    13    1
    13    13    14    1
    14     3     5    1
    15     9     8   ar
    16     9     6   ar
    17    18    19   ar
    18    20    21   ar
    19    22    23   ar
    20     1     2    2
    21     5     8   ar
    22     6     7   ar
    23    14    15    3
    24     3     4    1
@<TRIPOS>MOLECULE
Molport-047-885-905 PubChem-165928730
 23 24 0 0 0
SMALL
GASTEIGER

@<TRIPOS>ATOM
      1 C          11.2246   41.9127    8.9325 C.2     1  UNL1        0.4068
      2 O          10.7725   40.8196    8.4938 O.2     1  UNL1       -0.2260
      3 N          10.6535   42.5282   10.0924 N.am    1  UNL1       -0.2336
      4 H          11.0467   43.3808   10.3886 H       1  UNL1        0.1597
      5 C           9.5599   42.0110   10.8589 C.ar    1  UNL1        0.1580
      6 C           8.3268   41.0988   12.4050 C.ar    1  UNL1        0.0980
      7 C           9.6442   41.4096   12.1058 C.ar    1  UNL1        0.0565
      8 N           8.2881   42.0626   10.4331 N.ar    1  UNL1       -0.1539
      9 N           7.5569   41.5006   11.3769 N.ar    1  UNL1       -0.2483
     10 C           6.1103   41.3864   11.3183 C.3     1  UNL1        0.1276
     11 C           5.6365   41.5543    9.8846 C.3     1  UNL1        0.0275
     12 C           4.2249   41.0094    9.7246 C.3     1  UNL1        0.0182
     13 C           3.1887   42.1230    9.7805 C.3     1  UNL1        0.1055
     14 C           3.6939   43.3293    9.1174 C.1     1  UNL1        0.0731
     15 N           4.0919   44.2816    8.5941 N.1     1  UNL1       -0.1959
     16 O          12.2921   42.5413    8.2921 O.3     1  UNL1       -0.4294
     17 C          12.8318   42.0489    7.0739 C.3     1  UNL1        0.2367
     18 C          16.4019   44.2309    6.1507 C.ar    1  UNL1       -0.0000
     19 C          16.4339   43.2097    7.1055 C.ar    1  UNL1       -0.0002
     20 C          15.2704   42.4931    7.4021 C.ar    1  UNL1       -0.0007
     21 C          14.0752   42.7935    6.7397 C.ar    1  UNL1        0.0213
     22 C          14.0420   43.8211    5.7907 C.ar    1  UNL1       -0.0007
     23 C          15.2056   44.5375    5.4943 C.ar    1  UNL1       -0.0002
@<TRIPOS>BOND
     1    19    20   ar
     2    21    22   ar
     3    23    18   ar
     4    17    21    1
     5    17    16    1
     6     1    16    1
     7     1     3   am
     8     7     5   ar
     9    10     9    1
    10    10    11    1
    11    11    12    1
    12    12    13    1
    13    13    14    1
    14     3     5    1
    15     9     8   ar
    16     9     6   ar
    17    18    19   ar
    18    20    21   ar
    19    22    23   ar
    20     1     2    2
    21     5     8   ar
    22     6     7   ar
    23    14    15    3
    24     3     4    1
