@<TRIPOS>MOLECULE
MolPort-002-902-369 CHEMBL1337741 CSSS01394277748 MCULE-6597916471 PubChem-2814932
 29 31 0 0 0
SMALL
GASTEIGER

@<TRIPOS>ATOM
      1 O           4.6231   41.7072    9.5113 O.2     1  UNL1       -0.1497
      2 O           5.8574   40.1091    8.1314 O.2     1  UNL1       -0.1497
      3 S           5.9549   41.4092    8.8803 S.O2    1  UNL1        0.0774
      4 C           7.0353   39.9317   12.2114 C.3     1  UNL1        0.0239
      5 C           6.6568   41.2214   11.4913 C.3     1  UNL1        0.1052
      6 C           7.0146   42.4949   12.2243 C.3     1  UNL1        0.1069
      7 C           8.4025   42.4736   12.7468 C.2     1  UNL1        0.2279
      8 C           9.6418   41.5121   10.6406 C.ar    1  UNL1        0.0654
      9 C           8.5602   41.1285    9.7870 C.ar    1  UNL1        0.0821
     10 C           8.8718   40.5761    8.5303 C.ar    1  UNL1        0.0174
     11 C          10.1874   40.3982    8.1109 C.ar    1  UNL1        0.0014
     12 C          11.2329   40.7710    8.9461 C.ar    1  UNL1        0.0014
     13 C          10.9568   41.3204   10.1955 C.ar    1  UNL1        0.0160
     14 O           8.5941   42.8135   13.9426 O.2     1  UNL1       -0.2747
     15 N           9.5257   42.0852   11.9537 N.am    1  UNL1       -0.2829
     16 N           7.1614   41.2663   10.1294 N.pl3   1  UNL1       -0.1906
     17 H          10.3923   42.2411   12.3940 H       1  UNL1        0.1549
     18 C           6.3943   42.6950    7.7577 C.ar    1  UNL1        0.1360
     19 C           6.9037   42.4183    6.4734 C.ar    1  UNL1        0.0777
     20 C           7.2409   43.4728    5.6195 C.ar    1  UNL1        0.0274
     21 C           7.0805   44.8047    6.0262 C.ar    1  UNL1        0.0512
     22 C           6.5803   45.0726    7.3028 C.ar    1  UNL1        0.0161
     23 C           6.2411   44.0259    8.1621 C.ar    1  UNL1        0.0223
     24 CL          7.1440   40.7768    5.8943 Cl      1  UNL1       -0.0808
     25 C           7.9008   45.8281    3.8246 C.2     1  UNL1        0.2266
     26 C           8.2005   47.0822    3.0863 C.3     1  UNL1        0.0949
     27 O           8.0763   44.7192    3.2542 O.2     1  UNL1       -0.2748
     28 N           7.4174   45.9057    5.1714 N.am    1  UNL1       -0.2839
     29 H           7.3050   46.8081    5.5488 H       1  UNL1        0.1549
@<TRIPOS>BOND
     1     5     4    1
     2     5     6    1
     3     5    16    1
     4     6     7    1
     5     7    15   am
     6     9    10   ar
     7     9    16    1
     8    11    12   ar
     9    13     8   ar
    10    19    24    1
    11    19    20   ar
    12    21    28    1
    13    21    22   ar
    14    26    25    1
    15    23    18   ar
    16    15     8    1
    17    28    25   am
    18     3    16    1
    19     3    18    1
    20     7    14    2
    21     8     9   ar
    22    10    11   ar
    23    12    13   ar
    24    18    19   ar
    25    20    21   ar
    26    25    27    2
    27    22    23   ar
    28     3     1    2
    29     3     2    2
    30    15    17    1
    31    28    29    1
@<TRIPOS>MOLECULE
MolPort-002-902-369 CHEMBL1337741 CSSS01394277748 MCULE-6597916471 PubChem-2814932
 29 31 0 0 0
SMALL
GASTEIGER

@<TRIPOS>ATOM
      1 O          10.1193   41.5841   10.9968 O.2     1  UNL1       -0.1497
      2 O          11.2064   43.3662    9.7225 O.2     1  UNL1       -0.1497
      3 S          10.9521   41.8856    9.7817 S.O2    1  UNL1        0.0774
      4 C          10.4353   42.1565    6.0260 C.3     1  UNL1        0.0239
      5 C           9.8105   42.4416    7.3874 C.3     1  UNL1        0.1052
      6 C           8.3322   42.7593    7.3616 C.3     1  UNL1        0.1069
      7 C           7.5646   41.8031    6.5272 C.2     1  UNL1        0.2279
      8 C           8.6394   39.5527    7.3503 C.ar    1  UNL1        0.0654
      9 C           9.7375   40.0022    8.1489 C.ar    1  UNL1        0.0821
     10 C          10.5416   39.0317    8.7760 C.ar    1  UNL1        0.0174
     11 C          10.2940   37.6689    8.6352 C.ar    1  UNL1        0.0014
     12 C           9.2270   37.2396    7.8562 C.ar    1  UNL1        0.0014
     13 C           8.4132   38.1756    7.2231 C.ar    1  UNL1        0.0160
     14 O           6.7464   42.2655    5.6912 O.2     1  UNL1       -0.2747
     15 N           7.7143   40.3860    6.6320 N.am    1  UNL1       -0.2829
     16 N          10.0826   41.3920    8.3546 N.pl3   1  UNL1       -0.1906
     17 H           7.0523   39.8797    6.1080 H       1  UNL1        0.1549
     18 C          12.4927   41.0347    9.8772 C.ar    1  UNL1        0.1360
     19 C          13.5023   41.2148    8.9109 C.ar    1  UNL1        0.0777
     20 C          14.7068   40.5148    9.0282 C.ar    1  UNL1        0.0274
     21 C          14.9229   39.6326   10.0960 C.ar    1  UNL1        0.0512
     22 C          13.9160   39.4541   11.0478 C.ar    1  UNL1        0.0161
     23 C          12.7100   40.1488   10.9385 C.ar    1  UNL1        0.0223
     24 CL         13.3037   42.2937    7.5382 Cl      1  UNL1       -0.0808
     25 C          16.4156   37.8566   11.1846 C.2     1  UNL1        0.2266
     26 C          17.7526   37.2086   11.1920 C.3     1  UNL1        0.0949
     27 O          15.5406   37.4757   12.0063 O.2     1  UNL1       -0.2748
     28 N          16.1484   38.9023   10.2418 N.am    1  UNL1       -0.2839
     29 H          16.8818   39.1442    9.6312 H       1  UNL1        0.1549
@<TRIPOS>BOND
     1     5     4    1
     2     5     6    1
     3     5    16    1
     4     6     7    1
     5     7    15   am
     6     9    10   ar
     7     9    16    1
     8    11    12   ar
     9    13     8   ar
    10    19    24    1
    11    19    20   ar
    12    21    28    1
    13    21    22   ar
    14    26    25    1
    15    23    18   ar
    16    15     8    1
    17    28    25   am
    18     3    16    1
    19     3    18    1
    20     7    14    2
    21     8     9   ar
    22    10    11   ar
    23    12    13   ar
    24    18    19   ar
    25    20    21   ar
    26    25    27    2
    27    22    23   ar
    28     3     1    2
    29     3     2    2
    30    15    17    1
    31    28    29    1
@<TRIPOS>MOLECULE
MolPort-002-902-369 CHEMBL1337741 CSSS01394277748 MCULE-6597916471 PubChem-2814932
 29 31 0 0 0
SMALL
GASTEIGER

@<TRIPOS>ATOM
      1 O           9.7476   41.3640    6.0112 O.2     1  UNL1       -0.1497
      2 O          10.0611   39.5500    7.6214 O.2     1  UNL1       -0.1497
      3 S          10.2710   41.0187    7.3778 S.O2    1  UNL1        0.0774
      4 C          10.3081   43.5442   10.2180 C.3     1  UNL1        0.0239
      5 C          10.0540   42.0838    9.8605 C.3     1  UNL1        0.1052
      6 C           9.3297   41.2806   10.9175 C.3     1  UNL1        0.1069
      7 C           8.1433   41.9923   11.4520 C.2     1  UNL1        0.2279
      8 C           7.1071   42.8561    9.1988 C.ar    1  UNL1        0.0654
      9 C           8.1279   42.5495    8.2451 C.ar    1  UNL1        0.0821
     10 C           7.8912   42.8701    6.8951 C.ar    1  UNL1        0.0174
     11 C           6.7056   43.4697    6.4786 C.ar    1  UNL1        0.0014
     12 C           5.7195   43.7666    7.4107 C.ar    1  UNL1        0.0014
     13 C           5.9241   43.4615    8.7539 C.ar    1  UNL1        0.0160
     14 O           7.9963   42.0515   12.6998 O.2     1  UNL1       -0.2747
     15 N           7.1652   42.6107   10.6139 N.am    1  UNL1       -0.2829
     16 N           9.3945   41.9330    8.5746 N.pl3   1  UNL1       -0.1906
     17 H           6.3738   42.9328   11.1029 H       1  UNL1        0.1549
     18 C          11.9924   41.3841    7.4771 C.ar    1  UNL1        0.1360
     19 C          12.8323   40.7561    8.4182 C.ar    1  UNL1        0.0777
     20 C          14.1913   41.0817    8.4603 C.ar    1  UNL1        0.0274
     21 C          14.7300   42.0283    7.5778 C.ar    1  UNL1        0.0512
     22 C          13.8911   42.6515    6.6508 C.ar    1  UNL1        0.0161
     23 C          12.5328   42.3328    6.6017 C.ar    1  UNL1        0.0223
     24 CL         12.2313   39.5679    9.5648 Cl      1  UNL1       -0.0808
     25 C          16.6763   43.6838    7.3812 C.2     1  UNL1        0.2266
     26 C          18.1501   43.8636    7.4393 C.3     1  UNL1        0.0949
     27 O          15.9421   44.6788    7.1431 O.2     1  UNL1       -0.2748
     28 N          16.1198   42.3810    7.5979 N.am    1  UNL1       -0.2839
     29 H          16.7575   41.6532    7.7793 H       1  UNL1        0.1549
@<TRIPOS>BOND
     1     5     4    1
     2     5     6    1
     3     5    16    1
     4     6     7    1
     5     7    15   am
     6     9    10   ar
     7     9    16    1
     8    11    12   ar
     9    13     8   ar
    10    19    24    1
    11    19    20   ar
    12    21    28    1
    13    21    22   ar
    14    26    25    1
    15    23    18   ar
    16    15     8    1
    17    28    25   am
    18     3    16    1
    19     3    18    1
    20     7    14    2
    21     8     9   ar
    22    10    11   ar
    23    12    13   ar
    24    18    19   ar
    25    20    21   ar
    26    25    27    2
    27    22    23   ar
    28     3     1    2
    29     3     2    2
    30    15    17    1
    31    28    29    1
@<TRIPOS>MOLECULE
MolPort-002-902-369 CHEMBL1337741 CSSS01394277748 MCULE-6597916471 PubChem-2814932
 29 31 0 0 0
SMALL
GASTEIGER

@<TRIPOS>ATOM
      1 O           9.6314   40.6032    4.9512 O.2     1  UNL1       -0.1497
      2 O           9.7421   39.0552    6.8415 O.2     1  UNL1       -0.1497
      3 S           9.9078   40.4904    6.4249 S.O2    1  UNL1        0.0774
      4 C           6.4059   40.9643    7.8242 C.3     1  UNL1        0.0239
      5 C           7.4080   41.4707    6.7925 C.3     1  UNL1        0.1052
      6 C           7.0710   42.8084    6.1727 C.3     1  UNL1        0.1069
      7 C           6.6786   43.8169    7.1869 C.2     1  UNL1        0.2279
      8 C           8.5501   43.3795    8.9767 C.ar    1  UNL1        0.0654
      9 C           9.1786   42.1903    8.4905 C.ar    1  UNL1        0.0821
     10 C          10.2654   41.6703    9.2185 C.ar    1  UNL1        0.0174
     11 C          10.7303   42.2789   10.3812 C.ar    1  UNL1        0.0014
     12 C          10.1135   43.4324   10.8487 C.ar    1  UNL1        0.0014
     13 C           9.0360   43.9712   10.1505 C.ar    1  UNL1        0.0160
     14 O           5.6359   44.4906    6.9847 O.2     1  UNL1       -0.2747
     15 N           7.4309   44.0544    8.3782 N.am    1  UNL1       -0.2829
     16 N           8.7701   41.4797    7.2984 N.pl3   1  UNL1       -0.1906
     17 H           7.1211   44.8355    8.8912 H       1  UNL1        0.1549
     18 C          11.5555   41.0101    6.7735 C.ar    1  UNL1        0.1360
     19 C          12.3973   40.2821    7.6377 C.ar    1  UNL1        0.0777
     20 C          13.6960   40.7365    7.8856 C.ar    1  UNL1        0.0274
     21 C          14.1720   41.9107    7.2858 C.ar    1  UNL1        0.0512
     22 C          13.3308   42.6311    6.4343 C.ar    1  UNL1        0.0161
     23 C          12.0324   42.1849    6.1812 C.ar    1  UNL1        0.0223
     24 CL         11.8711   38.8076    8.4358 Cl      1  UNL1       -0.0808
     25 C          16.0255   43.6734    7.1278 C.2     1  UNL1        0.2266
     26 C          17.4340   44.0116    7.4584 C.3     1  UNL1        0.0949
     27 O          15.3186   44.5115    6.5083 O.2     1  UNL1       -0.2748
     28 N          15.4993   42.3998    7.5213 N.am    1  UNL1       -0.2839
     29 H          16.1123   41.7986    8.0030 H       1  UNL1        0.1549
@<TRIPOS>BOND
     1     5     4    1
     2     5     6    1
     3     5    16    1
     4     6     7    1
     5     7    15   am
     6     9    10   ar
     7     9    16    1
     8    11    12   ar
     9    13     8   ar
    10    19    24    1
    11    19    20   ar
    12    21    28    1
    13    21    22   ar
    14    26    25    1
    15    23    18   ar
    16    15     8    1
    17    28    25   am
    18     3    16    1
    19     3    18    1
    20     7    14    2
    21     8     9   ar
    22    10    11   ar
    23    12    13   ar
    24    18    19   ar
    25    20    21   ar
    26    25    27    2
    27    22    23   ar
    28     3     1    2
    29     3     2    2
    30    15    17    1
    31    28    29    1
@<TRIPOS>MOLECULE
MolPort-002-902-369 CHEMBL1337741 CSSS01394277748 MCULE-6597916471 PubChem-2814932
 29 31 0 0 0
SMALL
GASTEIGER

@<TRIPOS>ATOM
      1 O           7.7768   41.7628    6.6466 O.2     1  UNL1       -0.1497
      2 O           8.5397   39.5856    7.4587 O.2     1  UNL1       -0.1497
      3 S           8.6899   41.0727    7.6217 S.O2    1  UNL1        0.0774
      4 C           9.0049   43.4937   10.5347 C.3     1  UNL1        0.0239
      5 C           9.3069   42.0755   10.0628 C.3     1  UNL1        0.1052
      6 C           9.6849   41.1016   11.1563 C.3     1  UNL1        0.1069
      7 C           8.7660   41.1744   12.3183 C.2     1  UNL1        0.2279
      8 C           6.4686   41.2436   11.0480 C.ar    1  UNL1        0.0654
      9 C           6.8678   41.4092    9.6846 C.ar    1  UNL1        0.0821
     10 C           5.8615   41.4692    8.7022 C.ar    1  UNL1        0.0174
     11 C           4.5108   41.3738    9.0262 C.ar    1  UNL1        0.0014
     12 C           4.1303   41.2154   10.3527 C.ar    1  UNL1        0.0014
     13 C           5.1026   41.1524   11.3476 C.ar    1  UNL1        0.0160
     14 O           9.2666   41.2469   13.4699 O.2     1  UNL1       -0.2747
     15 N           7.3434   41.1658   12.1858 N.am    1  UNL1       -0.2829
     16 N           8.2410   41.5234    9.2440 N.pl3   1  UNL1       -0.1906
     17 H           6.8678   41.0918   13.0447 H       1  UNL1        0.1549
     18 C          10.3642   41.5256    7.3082 C.ar    1  UNL1        0.1360
     19 C          10.9809   41.2777    6.0658 C.ar    1  UNL1        0.0777
     20 C          12.3128   41.6528    5.8661 C.ar    1  UNL1        0.0274
     21 C          13.0450   42.2717    6.8888 C.ar    1  UNL1        0.0512
     22 C          12.4297   42.5097    8.1202 C.ar    1  UNL1        0.0161
     23 C          11.1001   42.1384    8.3286 C.ar    1  UNL1        0.0223
     24 CL         10.1342   40.4970    4.7386 Cl      1  UNL1       -0.0808
     25 C          14.8823   43.8611    6.0730 C.2     1  UNL1        0.2266
     26 C          16.3446   44.1076    5.9796 C.3     1  UNL1        0.0949
     27 O          14.0821   44.7049    5.5899 O.2     1  UNL1       -0.2748
     28 N          14.4119   42.6676    6.7118 N.am    1  UNL1       -0.2839
     29 H          15.0979   42.0565    7.0656 H       1  UNL1        0.1549
@<TRIPOS>BOND
     1     5     4    1
     2     5     6    1
     3     5    16    1
     4     6     7    1
     5     7    15   am
     6     9    10   ar
     7     9    16    1
     8    11    12   ar
     9    13     8   ar
    10    19    24    1
    11    19    20   ar
    12    21    28    1
    13    21    22   ar
    14    26    25    1
    15    23    18   ar
    16    15     8    1
    17    28    25   am
    18     3    16    1
    19     3    18    1
    20     7    14    2
    21     8     9   ar
    22    10    11   ar
    23    12    13   ar
    24    18    19   ar
    25    20    21   ar
    26    25    27    2
    27    22    23   ar
    28     3     1    2
    29     3     2    2
    30    15    17    1
    31    28    29    1
@<TRIPOS>MOLECULE
MolPort-002-902-369 CHEMBL1337741 CSSS01394277748 MCULE-6597916471 PubChem-2814932
 29 31 0 0 0
SMALL
GASTEIGER

@<TRIPOS>ATOM
      1 O           7.6317   40.6029   11.8608 O.2     1  UNL1       -0.1497
      2 O           8.5177   42.7892   11.2152 O.2     1  UNL1       -0.1497
      3 S           7.7267   41.6017   10.7409 S.O2    1  UNL1        0.0774
      4 C           4.1776   42.4718   11.7862 C.3     1  UNL1        0.0239
      5 C           5.0329   41.4757   11.0109 C.3     1  UNL1        0.1052
      6 C           4.2681   40.5570   10.0845 C.3     1  UNL1        0.1069
      7 C           3.2811   41.2886    9.2537 C.2     1  UNL1        0.2279
      8 C           4.7635   43.3276    8.5177 C.ar    1  UNL1        0.0654
      9 C           5.9340   43.1731    9.3249 C.ar    1  UNL1        0.0821
     10 C           6.9731   44.1102    9.1712 C.ar    1  UNL1        0.0174
     11 C           6.8844   45.1650    8.2668 C.ar    1  UNL1        0.0014
     12 C           5.7436   45.3100    7.4876 C.ar    1  UNL1        0.0014
     13 C           4.6984   44.3990    7.6167 C.ar    1  UNL1        0.0160
     14 O           2.1099   40.8353    9.1827 O.2     1  UNL1       -0.2747
     15 N           3.6022   42.4806    8.5343 N.am    1  UNL1       -0.2829
     16 N           6.1229   42.1174   10.2957 N.pl3   1  UNL1       -0.1906
     17 H           2.8858   42.7816    7.9299 H       1  UNL1        0.1549
     18 C           8.5383   40.8798    9.3528 C.ar    1  UNL1        0.1360
     19 C           9.8815   40.4584    9.4137 C.ar    1  UNL1        0.0777
     20 C          10.4826   39.8939    8.2847 C.ar    1  UNL1        0.0274
     21 C           9.7655   39.7433    7.0897 C.ar    1  UNL1        0.0512
     22 C           8.4359   40.1681    7.0339 C.ar    1  UNL1        0.0161
     23 C           7.8275   40.7330    8.1564 C.ar    1  UNL1        0.0223
     24 CL         10.8501   40.6229   10.8706 Cl      1  UNL1       -0.0808
     25 C           9.6840   38.8279    4.6974 C.2     1  UNL1        0.2266
     26 C          10.4620   38.2346    3.5792 C.3     1  UNL1        0.0949
     27 O           8.4481   39.0224    4.5543 O.2     1  UNL1       -0.2748
     28 N          10.3562   39.1674    5.9167 N.am    1  UNL1       -0.2839
     29 H          11.3233   38.9865    5.9528 H       1  UNL1        0.1549
@<TRIPOS>BOND
     1     5     4    1
     2     5     6    1
     3     5    16    1
     4     6     7    1
     5     7    15   am
     6     9    10   ar
     7     9    16    1
     8    11    12   ar
     9    13     8   ar
    10    19    24    1
    11    19    20   ar
    12    21    28    1
    13    21    22   ar
    14    26    25    1
    15    23    18   ar
    16    15     8    1
    17    28    25   am
    18     3    16    1
    19     3    18    1
    20     7    14    2
    21     8     9   ar
    22    10    11   ar
    23    12    13   ar
    24    18    19   ar
    25    20    21   ar
    26    25    27    2
    27    22    23   ar
    28     3     1    2
    29     3     2    2
    30    15    17    1
    31    28    29    1
@<TRIPOS>MOLECULE
MolPort-002-902-369 CHEMBL1337741 CSSS01394277748 MCULE-6597916471 PubChem-2814932
 29 31 0 0 0
SMALL
GASTEIGER

@<TRIPOS>ATOM
      1 O          11.0147   41.5870   10.8236 O.2     1  UNL1       -0.1497
      2 O          10.1848   39.4351   10.0097 O.2     1  UNL1       -0.1497
      3 S          10.3767   40.8842    9.6575 S.O2    1  UNL1        0.0774
      4 C          13.8701   40.6247    8.1828 C.3     1  UNL1        0.0239
      5 C          12.7348   41.5850    8.5204 C.3     1  UNL1        0.1052
      6 C          12.8355   42.9499    7.8769 C.3     1  UNL1        0.1069
      7 C          13.1556   42.8692    6.4309 C.2     1  UNL1        0.2279
      8 C          11.4985   40.9569    5.7283 C.ar    1  UNL1        0.0654
      9 C          11.0089   40.4866    6.9872 C.ar    1  UNL1        0.0821
     10 C          10.0612   39.4457    6.9825 C.ar    1  UNL1        0.0174
     11 C           9.6014   38.8752    5.7986 C.ar    1  UNL1        0.0014
     12 C          10.0830   39.3355    4.5797 C.ar    1  UNL1        0.0014
     13 C          11.0211   40.3642    4.5515 C.ar    1  UNL1        0.0160
     14 O          14.0765   43.5996    5.9830 O.2     1  UNL1       -0.2747
     15 N          12.4659   42.0012    5.5296 N.am    1  UNL1       -0.2829
     16 N          11.4252   41.0070    8.2712 N.pl3   1  UNL1       -0.1906
     17 H          12.6999   42.1475    4.5845 H       1  UNL1        0.1549
     18 C           8.8099   41.6072    9.2982 C.ar    1  UNL1        0.1360
     19 C           8.5732   42.9868    9.4609 C.ar    1  UNL1        0.0777
     20 C           7.3122   43.5132    9.1656 C.ar    1  UNL1        0.0274
     21 C           6.2773   42.6843    8.7106 C.ar    1  UNL1        0.0512
     22 C           6.5165   41.3166    8.5566 C.ar    1  UNL1        0.0161
     23 C           7.7726   40.7822    8.8493 C.ar    1  UNL1        0.0223
     24 CL          9.8148   44.0890   10.0366 Cl      1  UNL1       -0.0808
     25 C           4.6527   44.5367    8.0058 C.2     1  UNL1        0.2266
     26 C           3.2379   44.8908    7.7216 C.3     1  UNL1        0.0949
     27 O           5.5439   45.4195    7.8956 O.2     1  UNL1       -0.2748
     28 N           4.9746   43.1969    8.3995 N.am    1  UNL1       -0.2839
     29 H           4.2241   42.5629    8.4628 H       1  UNL1        0.1549
@<TRIPOS>BOND
     1     5     4    1
     2     5     6    1
     3     5    16    1
     4     6     7    1
     5     7    15   am
     6     9    10   ar
     7     9    16    1
     8    11    12   ar
     9    13     8   ar
    10    19    24    1
    11    19    20   ar
    12    21    28    1
    13    21    22   ar
    14    26    25    1
    15    23    18   ar
    16    15     8    1
    17    28    25   am
    18     3    16    1
    19     3    18    1
    20     7    14    2
    21     8     9   ar
    22    10    11   ar
    23    12    13   ar
    24    18    19   ar
    25    20    21   ar
    26    25    27    2
    27    22    23   ar
    28     3     1    2
    29     3     2    2
    30    15    17    1
    31    28    29    1
@<TRIPOS>MOLECULE
MolPort-002-902-369 CHEMBL1337741 CSSS01394277748 MCULE-6597916471 PubChem-2814932
 29 31 0 0 0
SMALL
GASTEIGER

@<TRIPOS>ATOM
      1 O           7.1562   40.2390   12.0507 O.2     1  UNL1       -0.1497
      2 O           7.7263   42.5654   12.5452 O.2     1  UNL1       -0.1497
      3 S           7.3637   41.6016   11.4497 S.O2    1  UNL1        0.0774
      4 C           3.7215   42.6376   11.7763 C.3     1  UNL1        0.0239
      5 C           4.6620   41.5646   11.2385 C.3     1  UNL1        0.1052
      6 C           4.0392   40.5988   10.2555 C.3     1  UNL1        0.1069
      7 C           3.2444   41.2907    9.2119 C.2     1  UNL1        0.2279
      8 C           4.9112   43.2304    8.6152 C.ar    1  UNL1        0.0654
      9 C           5.9129   43.1073    9.6287 C.ar    1  UNL1        0.0821
     10 C           6.9981   44.0034    9.6000 C.ar    1  UNL1        0.0174
     11 C           7.1120   44.9893    8.6235 C.ar    1  UNL1        0.0014
     12 C           6.1342   45.1044    7.6436 C.ar    1  UNL1        0.0014
     13 C           5.0485   44.2325    7.6452 C.ar    1  UNL1        0.0160
     14 O           2.0879   40.8633    8.9628 O.2     1  UNL1       -0.2747
     15 N           3.7338   42.4168    8.4813 N.am    1  UNL1       -0.2829
     16 N           5.8855   42.1229   10.6885 N.pl3   1  UNL1       -0.1906
     17 H           3.1483   42.6897    7.7384 H       1  UNL1        0.1549
     18 C           8.6689   41.5490   10.2664 C.ar    1  UNL1        0.1360
     19 C           8.4676   41.0636    8.9590 C.ar    1  UNL1        0.0777
     20 C           9.5353   41.0390    8.0567 C.ar    1  UNL1        0.0274
     21 C          10.8068   41.4901    8.4373 C.ar    1  UNL1        0.0512
     22 C          11.0014   41.9651    9.7365 C.ar    1  UNL1        0.0161
     23 C           9.9411   41.9931   10.6442 C.ar    1  UNL1        0.0223
     24 CL          6.9074   40.4708    8.4094 Cl      1  UNL1       -0.0808
     25 C          12.8401   42.5487    7.2916 C.2     1  UNL1        0.2266
     26 C          13.9402   42.3553    6.3118 C.3     1  UNL1        0.0949
     27 O          12.7360   43.6501    7.8932 O.2     1  UNL1       -0.2748
     28 N          11.9196   41.4771    7.5328 N.am    1  UNL1       -0.2839
     29 H          12.0662   40.6465    7.0252 H       1  UNL1        0.1549
@<TRIPOS>BOND
     1     5     4    1
     2     5     6    1
     3     5    16    1
     4     6     7    1
     5     7    15   am
     6     9    10   ar
     7     9    16    1
     8    11    12   ar
     9    13     8   ar
    10    19    24    1
    11    19    20   ar
    12    21    28    1
    13    21    22   ar
    14    26    25    1
    15    23    18   ar
    16    15     8    1
    17    28    25   am
    18     3    16    1
    19     3    18    1
    20     7    14    2
    21     8     9   ar
    22    10    11   ar
    23    12    13   ar
    24    18    19   ar
    25    20    21   ar
    26    25    27    2
    27    22    23   ar
    28     3     1    2
    29     3     2    2
    30    15    17    1
    31    28    29    1
@<TRIPOS>MOLECULE
MolPort-002-902-369 CHEMBL1337741 CSSS01394277748 MCULE-6597916471 PubChem-2814932
 29 31 0 0 0
SMALL
GASTEIGER

@<TRIPOS>ATOM
      1 O          11.1579   43.0367    9.4796 O.2     1  UNL1       -0.1497
      2 O          12.1983   42.7629    7.2832 O.2     1  UNL1       -0.1497
      3 S          11.6734   42.0314    8.4874 S.O2    1  UNL1        0.0774
      4 C          10.3575   38.5086    7.9359 C.3     1  UNL1        0.0239
      5 C          10.7531   39.8073    7.2418 C.3     1  UNL1        0.1052
      6 C          10.2894   39.9363    5.8081 C.3     1  UNL1        0.1069
      7 C           8.8627   39.5666    5.6417 C.2     1  UNL1        0.2279
      8 C           7.8456   40.8316    7.7062 C.ar    1  UNL1        0.0654
      9 C           9.0101   41.2635    8.4154 C.ar    1  UNL1        0.0821
     10 C           8.8285   42.0075    9.5965 C.ar    1  UNL1        0.0174
     11 C           7.5613   42.3238   10.0789 C.ar    1  UNL1        0.0014
     12 C           6.4348   41.8991    9.3860 C.ar    1  UNL1        0.0014
     13 C           6.5818   41.1613    8.2142 C.ar    1  UNL1        0.0160
     14 O           8.5560   38.7803    4.7091 O.2     1  UNL1       -0.2747
     15 N           7.8270   40.0631    6.4916 N.am    1  UNL1       -0.2829
     16 N          10.3681   40.9839    8.0026 N.pl3   1  UNL1       -0.1906
     17 H           6.9204   39.8330    6.1843 H       1  UNL1        0.1549
     18 C          12.9754   41.0848    9.2054 C.ar    1  UNL1        0.1360
     19 C          12.7885   40.3404   10.3871 C.ar    1  UNL1        0.0777
     20 C          13.8530   39.6073   10.9201 C.ar    1  UNL1        0.0274
     21 C          15.1072   39.6049   10.2939 C.ar    1  UNL1        0.0512
     22 C          15.2877   40.3493    9.1257 C.ar    1  UNL1        0.0161
     23 C          14.2304   41.0844    8.5864 C.ar    1  UNL1        0.0223
     24 CL         11.2508   40.3012   11.2366 Cl      1  UNL1       -0.0808
     25 C          16.8747   37.7520   10.1946 C.2     1  UNL1        0.2266
     26 C          18.0145   37.0994   10.8894 C.3     1  UNL1        0.0949
     27 O          16.5075   37.3189    9.0705 O.2     1  UNL1       -0.2748
     28 N          16.2163   38.8619   10.8177 N.am    1  UNL1       -0.2839
     29 H          16.5609   39.1434   11.6959 H       1  UNL1        0.1549
@<TRIPOS>BOND
     1     5     4    1
     2     5     6    1
     3     5    16    1
     4     6     7    1
     5     7    15   am
     6     9    10   ar
     7     9    16    1
     8    11    12   ar
     9    13     8   ar
    10    19    24    1
    11    19    20   ar
    12    21    28    1
    13    21    22   ar
    14    26    25    1
    15    23    18   ar
    16    15     8    1
    17    28    25   am
    18     3    16    1
    19     3    18    1
    20     7    14    2
    21     8     9   ar
    22    10    11   ar
    23    12    13   ar
    24    18    19   ar
    25    20    21   ar
    26    25    27    2
    27    22    23   ar
    28     3     1    2
    29     3     2    2
    30    15    17    1
    31    28    29    1
@<TRIPOS>MOLECULE
MolPort-002-902-369 CHEMBL1337741 CSSS01394277748 MCULE-6597916471 PubChem-2814932
 29 31 0 0 0
SMALL
GASTEIGER

@<TRIPOS>ATOM
      1 O          10.2813   41.4445   10.9269 O.2     1  UNL1       -0.1497
      2 O          11.2792   43.2613    9.6288 O.2     1  UNL1       -0.1497
      3 S          11.0442   41.7769    9.6747 S.O2    1  UNL1        0.0774
      4 C           9.3594   39.0175    7.6765 C.3     1  UNL1        0.0239
      5 C          10.4892   40.0415    7.6683 C.3     1  UNL1        0.1052
      6 C          11.1167   40.2947    6.3158 C.3     1  UNL1        0.1069
      7 C          10.1024   40.4981    5.2530 C.2     1  UNL1        0.2279
      8 C           8.4706   42.1205    6.5186 C.ar    1  UNL1        0.0654
      9 C           8.9743   42.0922    7.8570 C.ar    1  UNL1        0.0821
     10 C           8.3287   42.8849    8.8246 C.ar    1  UNL1        0.0174
     11 C           7.2296   43.6796    8.5102 C.ar    1  UNL1        0.0014
     12 C           6.7445   43.7003    7.2088 C.ar    1  UNL1        0.0014
     13 C           7.3618   42.9270    6.2290 C.ar    1  UNL1        0.0160
     14 O          10.2328   39.8621    4.1756 O.2     1  UNL1       -0.2747
     15 N           8.9889   41.3812    5.4002 N.am    1  UNL1       -0.2829
     16 N          10.1045   41.2985    8.2875 N.pl3   1  UNL1       -0.1906
     17 H           8.4743   41.5087    4.5706 H       1  UNL1        0.1549
     18 C          12.5967   40.9424    9.6719 C.ar    1  UNL1        0.1360
     19 C          13.6097   41.2603    8.7454 C.ar    1  UNL1        0.0777
     20 C          14.8237   40.5679    8.7811 C.ar    1  UNL1        0.0274
     21 C          15.0461   39.5578    9.7274 C.ar    1  UNL1        0.0512
     22 C          14.0359   39.2435   10.6397 C.ar    1  UNL1        0.0161
     23 C          12.8204   39.9296   10.6114 C.ar    1  UNL1        0.0223
     24 CL         13.4039   42.5051    7.5224 Cl      1  UNL1       -0.0808
     25 C          16.8165   38.1443   10.9254 C.2     1  UNL1        0.2266
     26 C          18.1199   37.4416   10.8034 C.3     1  UNL1        0.0949
     27 O          16.2046   38.1232   12.0259 O.2     1  UNL1       -0.2748
     28 N          16.2814   38.8319    9.7876 N.am    1  UNL1       -0.2839
     29 H          16.8171   38.8029    8.9621 H       1  UNL1        0.1549
@<TRIPOS>BOND
     1     5     4    1
     2     5     6    1
     3     5    16    1
     4     6     7    1
     5     7    15   am
     6     9    10   ar
     7     9    16    1
     8    11    12   ar
     9    13     8   ar
    10    19    24    1
    11    19    20   ar
    12    21    28    1
    13    21    22   ar
    14    26    25    1
    15    23    18   ar
    16    15     8    1
    17    28    25   am
    18     3    16    1
    19     3    18    1
    20     7    14    2
    21     8     9   ar
    22    10    11   ar
    23    12    13   ar
    24    18    19   ar
    25    20    21   ar
    26    25    27    2
    27    22    23   ar
    28     3     1    2
    29     3     2    2
    30    15    17    1
    31    28    29    1
