@<TRIPOS>MOLECULE
MolPort-035-706-961 CSSS03437789215 MCULE-9876989215 PubChem-91938286
 31 33 0 0 0
SMALL
GASTEIGER

@<TRIPOS>ATOM
      1 C           6.6174   42.5044    7.5722 C.3     1  UNL1        0.2880
      2 C           6.3592   43.0424    6.1719 C.3     1  UNL1        0.0650
      3 C           8.9178   42.4601    8.5899 C.ar    1  UNL1        0.1542
      4 C          10.1978   41.8976    8.5856 C.ar    1  UNL1        0.0529
      5 C          11.1417   42.2735    9.5478 C.ar    1  UNL1        0.0535
      6 C          10.7919   43.2262   10.5177 C.ar    1  UNL1        0.0161
      7 C           9.5144   43.7930   10.5231 C.ar    1  UNL1        0.0190
      8 C           8.5789   43.4088    9.5595 C.ar    1  UNL1        0.0850
      9 C           6.3102   43.5934    8.5806 C.2     1  UNL1        0.2732
     10 O           7.9867   42.0723    7.6203 O.3     1  UNL1       -0.4618
     11 O           5.1772   44.1461    8.5879 O.2     1  UNL1       -0.2704
     12 N           7.2810   43.9905    9.5488 N.am    1  UNL1       -0.2783
     13 H           7.0494   44.6753   10.2171 H       1  UNL1        0.1551
     14 C          12.8670   40.4971   10.2089 C.2     1  UNL1        0.2707
     15 O          12.0724   39.8497   10.9404 O.2     1  UNL1       -0.2707
     16 N          12.4435   41.6736    9.5078 N.am    1  UNL1       -0.2808
     17 H          13.1158   42.1152    8.9402 H       1  UNL1        0.1550
     18 C          14.2778   40.0355   10.0772 C.3     1  UNL1        0.2897
     19 O          14.7073   40.1342    8.7227 O.3     1  UNL1       -0.4656
     20 C          15.1210   41.3338    8.1325 C.ar    1  UNL1        0.1390
     21 C          16.3378   41.9449    8.4775 C.ar    1  UNL1        0.0327
     22 C          16.7224   43.1430    7.8693 C.ar    1  UNL1       -0.0188
     23 C          18.0099   43.7848    8.2408 C.3     1  UNL1        0.0311
     24 C          15.8954   43.7370    6.9118 C.ar    1  UNL1       -0.0041
     25 C          14.6845   43.1324    6.5628 C.ar    1  UNL1        0.0028
     26 C          14.2996   41.9340    7.1719 C.ar    1  UNL1        0.0369
     27 C           5.7273   41.3213    7.8401 C.2     1  UNL1        0.3623
     28 O           5.7491   40.3213    7.0688 O.2     1  UNL1       -0.2457
     29 O           4.8309   41.3639    8.9110 O.3     1  UNL1       -0.4458
     30 C           3.9931   40.4513   10.9620 C.3     1  UNL1        0.0513
     31 C           5.2075   40.9716   10.2222 C.3     1  UNL1        0.2087
@<TRIPOS>BOND
     1    30    31    1
     2    31    29    1
     3    27    29    1
     4     1    27    1
     5     1     2    1
     6     1    10    1
     7     1     9    1
     8     3    10    1
     9     4     5   ar
    10     5    16    1
    11    18    14    1
    12    18    19    1
    13    20    19    1
    14    21    22   ar
    15    23    22    1
    16    24    25   ar
    17    26    20   ar
    18     6     7   ar
    19     8    12    1
    20     8     3   ar
    21    16    14   am
    22    12     9   am
    23    27    28    2
    24     3     4   ar
    25     5     6   ar
    26    14    15    2
    27    20    21   ar
    28    22    24   ar
    29    25    26   ar
    30     7     8   ar
    31     9    11    2
    32    16    17    1
    33    12    13    1
@<TRIPOS>MOLECULE
MolPort-035-706-961 CSSS03437789215 MCULE-9876989215 PubChem-91938286
 31 33 0 0 0
SMALL
GASTEIGER

@<TRIPOS>ATOM
      1 C           4.1883   41.9014    9.8017 C.3     1  UNL1        0.2880
      2 C           3.2568   41.0197    8.9821 C.3     1  UNL1        0.0650
      3 C           6.6807   41.9036    9.4591 C.ar    1  UNL1        0.1542
      4 C           7.8893   41.2137    9.5928 C.ar    1  UNL1        0.0529
      5 C           9.0992   41.8281    9.2513 C.ar    1  UNL1        0.0535
      6 C           9.0878   43.1460    8.7680 C.ar    1  UNL1        0.0161
      7 C           7.8813   43.8377    8.6298 C.ar    1  UNL1        0.0190
      8 C           6.6794   43.2158    8.9761 C.ar    1  UNL1        0.0850
      9 C           4.2122   43.2892    9.1929 C.2     1  UNL1        0.2732
     10 O           5.4805   41.2736    9.8056 O.3     1  UNL1       -0.4618
     11 O           3.1361   43.9241    9.0256 O.2     1  UNL1       -0.2704
     12 N           5.4454   43.9071    8.8258 N.am    1  UNL1       -0.2783
     13 H           5.4419   44.8228    8.4642 H       1  UNL1        0.1551
     14 C          11.6483   41.5693    9.1858 C.2     1  UNL1        0.2707
     15 O          11.8638   42.7629    8.8471 O.2     1  UNL1       -0.2707
     16 N          10.3165   41.0854    9.4023 N.am    1  UNL1       -0.2808
     17 H          10.2284   40.1461    9.6838 H       1  UNL1        0.1550
     18 C          12.8008   40.6399    9.3559 C.3     1  UNL1        0.2897
     19 O          13.6375   40.6718    8.2035 O.3     1  UNL1       -0.4656
     20 C          14.8169   41.4214    8.1300 C.ar    1  UNL1        0.1390
     21 C          14.9448   42.5119    7.2539 C.ar    1  UNL1        0.0327
     22 C          16.1365   43.2406    7.2046 C.ar    1  UNL1       -0.0188
     23 C          16.2653   44.3915    6.2739 C.3     1  UNL1        0.0311
     24 C          17.2065   42.8861    8.0310 C.ar    1  UNL1       -0.0041
     25 C          17.0843   41.8034    8.9064 C.ar    1  UNL1        0.0028
     26 C          15.8922   41.0740    8.9551 C.ar    1  UNL1        0.0369
     27 C           3.6919   41.9950   11.2189 C.2     1  UNL1        0.3623
     28 O           4.3817   41.5251   12.1669 O.2     1  UNL1       -0.2457
     29 O           2.4338   42.5479   11.4716 O.3     1  UNL1       -0.4458
     30 C           0.8538   43.0518   13.2011 C.3     1  UNL1        0.0513
     31 C           1.5270   41.9622   12.3933 C.3     1  UNL1        0.2087
@<TRIPOS>BOND
     1    30    31    1
     2    31    29    1
     3    27    29    1
     4     1    27    1
     5     1     2    1
     6     1    10    1
     7     1     9    1
     8     3    10    1
     9     4     5   ar
    10     5    16    1
    11    18    14    1
    12    18    19    1
    13    20    19    1
    14    21    22   ar
    15    23    22    1
    16    24    25   ar
    17    26    20   ar
    18     6     7   ar
    19     8    12    1
    20     8     3   ar
    21    16    14   am
    22    12     9   am
    23    27    28    2
    24     3     4   ar
    25     5     6   ar
    26    14    15    2
    27    20    21   ar
    28    22    24   ar
    29    25    26   ar
    30     7     8   ar
    31     9    11    2
    32    16    17    1
    33    12    13    1
@<TRIPOS>MOLECULE
MolPort-035-706-961 CSSS03437789215 MCULE-9876989215 PubChem-91938286
 31 33 0 0 0
SMALL
GASTEIGER

@<TRIPOS>ATOM
      1 C           5.2201   42.3581    9.6154 C.3     1  UNL1        0.2880
      2 C           4.8734   42.0771   11.0706 C.3     1  UNL1        0.0650
      3 C           7.3851   41.6012    8.5812 C.ar    1  UNL1        0.1542
      4 C           8.7732   41.7516    8.5101 C.ar    1  UNL1        0.0529
      5 C           9.5217   41.0084    7.5906 C.ar    1  UNL1        0.0535
      6 C           8.8645   40.1050    6.7405 C.ar    1  UNL1        0.0161
      7 C           7.4773   39.9496    6.8110 C.ar    1  UNL1        0.0190
      8 C           6.7395   40.6983    7.7309 C.ar    1  UNL1        0.0850
      9 C           4.5615   41.3086    8.7425 C.2     1  UNL1        0.2732
     10 O           6.6526   42.3525    9.5067 O.3     1  UNL1       -0.4618
     11 O           3.3163   41.1231    8.8084 O.2     1  UNL1       -0.2704
     12 N           5.3290   40.5366    7.8193 N.am    1  UNL1       -0.2783
     13 H           4.8768   39.8845    7.2367 H       1  UNL1        0.1551
     14 C          11.9226   40.4675    8.3063 C.2     1  UNL1        0.2707
     15 O          11.5889   39.5439    9.0947 O.2     1  UNL1       -0.2707
     16 N          10.9433   41.1917    7.5504 N.am    1  UNL1       -0.2808
     17 H          11.2817   41.8866    6.9407 H       1  UNL1        0.1550
     18 C          13.3636   40.8198    8.1638 C.3     1  UNL1        0.2897
     19 O          13.5963   41.4584    6.9120 O.3     1  UNL1       -0.4656
     20 C          14.4663   42.5428    6.7518 C.ar    1  UNL1        0.1390
     21 C          15.6742   42.6311    7.4634 C.ar    1  UNL1        0.0327
     22 C          16.5216   43.7275    7.2804 C.ar    1  UNL1       -0.0188
     23 C          17.7966   43.8153    8.0381 C.3     1  UNL1        0.0311
     24 C          16.1689   44.7408    6.3848 C.ar    1  UNL1       -0.0041
     25 C          14.9694   44.6572    5.6724 C.ar    1  UNL1        0.0028
     26 C          14.1214   43.5606    5.8559 C.ar    1  UNL1        0.0369
     27 C           4.7104   43.7172    9.2192 C.2     1  UNL1        0.3623
     28 O           3.4687   43.9277    9.1232 O.2     1  UNL1       -0.2457
     29 O           5.6217   44.7259    8.8963 O.3     1  UNL1       -0.4458
     30 C           7.9292   45.2430    9.2831 C.3     1  UNL1        0.0513
     31 C           6.9428   44.4355    8.4660 C.3     1  UNL1        0.2087
@<TRIPOS>BOND
     1    30    31    1
     2    31    29    1
     3    27    29    1
     4     1    27    1
     5     1     2    1
     6     1    10    1
     7     1     9    1
     8     3    10    1
     9     4     5   ar
    10     5    16    1
    11    18    14    1
    12    18    19    1
    13    20    19    1
    14    21    22   ar
    15    23    22    1
    16    24    25   ar
    17    26    20   ar
    18     6     7   ar
    19     8    12    1
    20     8     3   ar
    21    16    14   am
    22    12     9   am
    23    27    28    2
    24     3     4   ar
    25     5     6   ar
    26    14    15    2
    27    20    21   ar
    28    22    24   ar
    29    25    26   ar
    30     7     8   ar
    31     9    11    2
    32    16    17    1
    33    12    13    1
@<TRIPOS>MOLECULE
MolPort-035-706-961 CSSS03437789215 MCULE-9876989215 PubChem-91938286
 31 33 0 0 0
SMALL
GASTEIGER

@<TRIPOS>ATOM
      1 C          14.5299   37.8636   10.2971 C.3     1  UNL1        0.2880
      2 C          14.6818   36.3955   10.6691 C.3     1  UNL1        0.0650
      3 C          12.2884   38.9027    9.8223 C.ar    1  UNL1        0.1542
      4 C          11.1924   38.9977    8.9595 C.ar    1  UNL1        0.0529
      5 C          10.1584   39.9032    9.2221 C.ar    1  UNL1        0.0535
      6 C          10.2300   40.7148   10.3653 C.ar    1  UNL1        0.0161
      7 C          11.3225   40.6203   11.2318 C.ar    1  UNL1        0.0190
      8 C          12.3504   39.7148   10.9588 C.ar    1  UNL1        0.0850
      9 C          14.5248   38.6932   11.5654 C.2     1  UNL1        0.2732
     10 O          13.3131   37.9917    9.5440 O.3     1  UNL1       -0.4618
     11 O          15.4810   38.6043   12.3821 O.2     1  UNL1       -0.2704
     12 N          13.4594   39.6018   11.8424 N.am    1  UNL1       -0.2783
     13 H          13.4924   40.1569   12.6548 H       1  UNL1        0.1551
     14 C           8.4132   41.1555    7.8237 C.2     1  UNL1        0.2707
     15 O           8.8152   42.3006    8.1598 O.2     1  UNL1       -0.2707
     16 N           9.0517   39.9688    8.3127 N.am    1  UNL1       -0.2808
     17 H           8.6934   39.1102    7.9908 H       1  UNL1        0.1550
     18 C           7.2449   41.0325    6.9068 C.3     1  UNL1        0.2897
     19 O           7.6738   41.0746    5.5491 O.3     1  UNL1       -0.4656
     20 C           8.8264   40.4298    5.0863 C.ar    1  UNL1        0.1390
     21 C           8.7725   39.1583    4.4918 C.ar    1  UNL1        0.0327
     22 C           9.9422   38.5414    4.0395 C.ar    1  UNL1       -0.0188
     23 C           9.8778   37.1954    3.4136 C.3     1  UNL1        0.0311
     24 C          11.1721   39.1910    4.1764 C.ar    1  UNL1       -0.0041
     25 C          11.2317   40.4572    4.7651 C.ar    1  UNL1        0.0028
     26 C          10.0614   41.0741    5.2181 C.ar    1  UNL1        0.0369
     27 C          15.6821   38.2960    9.4315 C.2     1  UNL1        0.3623
     28 O          16.5155   37.4455    9.0103 O.2     1  UNL1       -0.2457
     29 O          15.8593   39.6531    9.1505 O.3     1  UNL1       -0.4458
     30 C          17.0304   41.7355    8.9661 C.3     1  UNL1        0.0513
     31 C          16.9691   40.3849    9.6481 C.3     1  UNL1        0.2087
@<TRIPOS>BOND
     1    30    31    1
     2    31    29    1
     3    27    29    1
     4     1    27    1
     5     1     2    1
     6     1    10    1
     7     1     9    1
     8     3    10    1
     9     4     5   ar
    10     5    16    1
    11    18    14    1
    12    18    19    1
    13    20    19    1
    14    21    22   ar
    15    23    22    1
    16    24    25   ar
    17    26    20   ar
    18     6     7   ar
    19     8    12    1
    20     8     3   ar
    21    16    14   am
    22    12     9   am
    23    27    28    2
    24     3     4   ar
    25     5     6   ar
    26    14    15    2
    27    20    21   ar
    28    22    24   ar
    29    25    26   ar
    30     7     8   ar
    31     9    11    2
    32    16    17    1
    33    12    13    1
@<TRIPOS>MOLECULE
MolPort-035-706-961 CSSS03437789215 MCULE-9876989215 PubChem-91938286
 31 33 0 0 0
SMALL
GASTEIGER

@<TRIPOS>ATOM
      1 C           8.2084   41.1522    6.7832 C.3     1  UNL1        0.2880
      2 C           7.7202   42.4738    6.2070 C.3     1  UNL1        0.0650
      3 C          10.4272   40.9343    7.9490 C.ar    1  UNL1        0.1542
      4 C          11.8208   40.9265    7.8384 C.ar    1  UNL1        0.0529
      5 C          12.6202   40.6577    8.9550 C.ar    1  UNL1        0.0535
      6 C          12.0082   40.3993   10.1916 C.ar    1  UNL1        0.0161
      7 C          10.6154   40.4096   10.3068 C.ar    1  UNL1        0.0190
      8 C           9.8267   40.6765    9.1852 C.ar    1  UNL1        0.0850
      9 C           7.5914   40.9566    8.1537 C.2     1  UNL1        0.2732
     10 O           9.6435   41.2050    6.8220 O.3     1  UNL1       -0.4618
     11 O           6.3391   40.9937    8.2936 O.2     1  UNL1       -0.2704
     12 N           8.4089   40.7028    9.2959 N.am    1  UNL1       -0.2783
     13 H           7.9863   40.5440   10.1708 H       1  UNL1        0.1551
     14 C          15.0113   40.1683    9.7374 C.2     1  UNL1        0.2707
     15 O          14.6575   39.6446   10.8267 O.2     1  UNL1       -0.2707
     16 N          14.0456   40.6602    8.7992 N.am    1  UNL1       -0.2808
     17 H          14.3974   41.0388    7.9612 H       1  UNL1        0.1550
     18 C          16.4631   40.2866    9.4226 C.3     1  UNL1        0.2897
     19 O          16.8741   41.6491    9.4835 O.3     1  UNL1       -0.4656
     20 C          16.8609   42.5066    8.3777 C.ar    1  UNL1        0.1390
     21 C          15.7291   42.6330    7.5553 C.ar    1  UNL1        0.0327
     22 C          15.7481   43.4986    6.4582 C.ar    1  UNL1       -0.0188
     23 C          14.5480   43.6256    5.5914 C.3     1  UNL1        0.0311
     24 C          16.8961   44.2445    6.1769 C.ar    1  UNL1       -0.0041
     25 C          18.0244   44.1246    6.9929 C.ar    1  UNL1        0.0028
     26 C          18.0056   43.2580    8.0902 C.ar    1  UNL1        0.0369
     27 C           7.7902   40.0165    5.8894 C.2     1  UNL1        0.3623
     28 O           6.9613   39.1562    6.2995 O.2     1  UNL1       -0.2457
     29 O           8.3736   39.8848    4.6266 O.3     1  UNL1       -0.4458
     30 C           9.4363   38.4211    3.0551 C.3     1  UNL1        0.0513
     31 C           9.5281   39.0875    4.4117 C.3     1  UNL1        0.2087
@<TRIPOS>BOND
     1    30    31    1
     2    31    29    1
     3    27    29    1
     4     1    27    1
     5     1     2    1
     6     1    10    1
     7     1     9    1
     8     3    10    1
     9     4     5   ar
    10     5    16    1
    11    18    14    1
    12    18    19    1
    13    20    19    1
    14    21    22   ar
    15    23    22    1
    16    24    25   ar
    17    26    20   ar
    18     6     7   ar
    19     8    12    1
    20     8     3   ar
    21    16    14   am
    22    12     9   am
    23    27    28    2
    24     3     4   ar
    25     5     6   ar
    26    14    15    2
    27    20    21   ar
    28    22    24   ar
    29    25    26   ar
    30     7     8   ar
    31     9    11    2
    32    16    17    1
    33    12    13    1
@<TRIPOS>MOLECULE
MolPort-035-706-961 CSSS03437789215 MCULE-9876989215 PubChem-91938286
 31 33 0 0 0
SMALL
GASTEIGER

@<TRIPOS>ATOM
      1 C          14.9734   38.7332   10.2983 C.3     1  UNL1        0.2880
      2 C          14.7587   38.7125   11.8051 C.3     1  UNL1        0.0650
      3 C          13.5963   40.1775    8.7662 C.ar    1  UNL1        0.1542
      4 C          12.3520   40.4179    8.1760 C.ar    1  UNL1        0.0529
      5 C          12.1950   41.4516    7.2462 C.ar    1  UNL1        0.0535
      6 C          13.3007   42.2499    6.9134 C.ar    1  UNL1        0.0161
      7 C          14.5455   42.0147    7.5038 C.ar    1  UNL1        0.0190
      8 C          14.6917   40.9784    8.4290 C.ar    1  UNL1        0.0850
      9 C          16.1182   39.6735    9.9787 C.2     1  UNL1        0.2732
     10 O          13.7349   39.1394    9.6939 O.3     1  UNL1       -0.4618
     11 O          17.2436   39.5059   10.5215 O.2     1  UNL1       -0.2704
     12 N          15.9514   40.7404    9.0453 N.am    1  UNL1       -0.2783
     13 H          16.7173   41.3185    8.8254 H       1  UNL1        0.1551
     14 C           9.6802   41.9321    7.3658 C.2     1  UNL1        0.2707
     15 O           9.6534   42.0259    8.6213 O.2     1  UNL1       -0.2707
     16 N          10.9018   41.6656    6.6647 N.am    1  UNL1       -0.2808
     17 H          10.8473   41.6253    5.6826 H       1  UNL1        0.1550
     18 C           8.4148   42.0924    6.5952 C.3     1  UNL1        0.2897
     19 O           7.3110   41.5946    7.3455 O.3     1  UNL1       -0.4656
     20 C           6.2613   42.4024    7.7972 C.ar    1  UNL1        0.1390
     21 C           5.3681   41.9655    8.7894 C.ar    1  UNL1        0.0327
     22 C           4.3299   42.7968    9.2190 C.ar    1  UNL1       -0.0188
     23 C           3.3877   42.3272   10.2674 C.3     1  UNL1        0.0311
     24 C           4.1785   44.0697    8.6618 C.ar    1  UNL1       -0.0041
     25 C           5.0655   44.5107    7.6758 C.ar    1  UNL1        0.0028
     26 C           6.1038   43.6786    7.2457 C.ar    1  UNL1        0.0369
     27 C          15.3201   37.3530    9.8100 C.2     1  UNL1        0.3623
     28 O          16.0725   37.2036    8.8065 O.2     1  UNL1       -0.2457
     29 O          14.7523   36.2398   10.4351 O.3     1  UNL1       -0.4458
     30 C          12.3768   35.9284   10.4738 C.3     1  UNL1        0.0513
     31 C          13.6887   35.5078    9.8454 C.3     1  UNL1        0.2087
@<TRIPOS>BOND
     1    30    31    1
     2    31    29    1
     3    27    29    1
     4     1    27    1
     5     1     2    1
     6     1    10    1
     7     1     9    1
     8     3    10    1
     9     4     5   ar
    10     5    16    1
    11    18    14    1
    12    18    19    1
    13    20    19    1
    14    21    22   ar
    15    23    22    1
    16    24    25   ar
    17    26    20   ar
    18     6     7   ar
    19     8    12    1
    20     8     3   ar
    21    16    14   am
    22    12     9   am
    23    27    28    2
    24     3     4   ar
    25     5     6   ar
    26    14    15    2
    27    20    21   ar
    28    22    24   ar
    29    25    26   ar
    30     7     8   ar
    31     9    11    2
    32    16    17    1
    33    12    13    1
@<TRIPOS>MOLECULE
MolPort-035-706-961 CSSS03437789215 MCULE-9876989215 PubChem-91938286
 31 33 0 0 0
SMALL
GASTEIGER

@<TRIPOS>ATOM
      1 C          16.4017   39.0391   10.7279 C.3     1  UNL1        0.2880
      2 C          17.0879   39.3574   12.0488 C.3     1  UNL1        0.0650
      3 C          14.1811   40.0377   10.0942 C.ar    1  UNL1        0.1542
      4 C          12.8029   40.0875   10.3235 C.ar    1  UNL1        0.0529
      5 C          11.9762   40.8727    9.5124 C.ar    1  UNL1        0.0535
      6 C          12.5456   41.6152    8.4659 C.ar    1  UNL1        0.0161
      7 C          13.9234   41.5705    8.2358 C.ar    1  UNL1        0.0190
      8 C          14.7392   40.7813    9.0499 C.ar    1  UNL1        0.0850
      9 C          16.9864   39.9242    9.6455 C.2     1  UNL1        0.2732
     10 O          14.9925   39.2471   10.9152 O.3     1  UNL1       -0.4618
     11 O          18.2298   39.9296    9.4372 O.2     1  UNL1       -0.2704
     12 N          16.1442   40.7405    8.8319 N.am    1  UNL1       -0.2783
     13 H          16.5405   41.2816    8.1113 H       1  UNL1        0.1551
     14 C           9.8285   41.9677   10.3831 C.2     1  UNL1        0.2707
     15 O          10.3911   43.0425   10.7209 O.2     1  UNL1       -0.2707
     16 N          10.5679   40.8970    9.7816 N.am    1  UNL1       -0.2808
     17 H          10.0560   40.0954    9.5271 H       1  UNL1        0.1550
     18 C           8.3668   41.8031   10.6220 C.3     1  UNL1        0.2897
     19 O           7.6409   42.0074    9.4136 O.3     1  UNL1       -0.4656
     20 C           6.2752   42.3110    9.3788 C.ar    1  UNL1        0.1390
     21 C           5.7829   43.4161    8.6651 C.ar    1  UNL1        0.0327
     22 C           4.4128   43.6920    8.6500 C.ar    1  UNL1       -0.0188
     23 C           3.8995   44.8641    7.8947 C.3     1  UNL1        0.0311
     24 C           3.5263   42.8652    9.3456 C.ar    1  UNL1       -0.0041
     25 C           4.0101   41.7628   10.0556 C.ar    1  UNL1        0.0028
     26 C           5.3810   41.4872   10.0711 C.ar    1  UNL1        0.0369
     27 C          16.6335   37.5980   10.3629 C.2     1  UNL1        0.3623
     28 O          17.1111   36.7953   11.2131 O.2     1  UNL1       -0.2457
     29 O          16.3767   37.1695    9.0580 O.3     1  UNL1       -0.4458
     30 C          14.0683   36.5740    8.8165 C.3     1  UNL1        0.0513
     31 C          15.5015   36.0868    8.7812 C.3     1  UNL1        0.2087
@<TRIPOS>BOND
     1    30    31    1
     2    31    29    1
     3    27    29    1
     4     1    27    1
     5     1     2    1
     6     1    10    1
     7     1     9    1
     8     3    10    1
     9     4     5   ar
    10     5    16    1
    11    18    14    1
    12    18    19    1
    13    20    19    1
    14    21    22   ar
    15    23    22    1
    16    24    25   ar
    17    26    20   ar
    18     6     7   ar
    19     8    12    1
    20     8     3   ar
    21    16    14   am
    22    12     9   am
    23    27    28    2
    24     3     4   ar
    25     5     6   ar
    26    14    15    2
    27    20    21   ar
    28    22    24   ar
    29    25    26   ar
    30     7     8   ar
    31     9    11    2
    32    16    17    1
    33    12    13    1
@<TRIPOS>MOLECULE
MolPort-035-706-961 CSSS03437789215 MCULE-9876989215 PubChem-91938286
 31 33 0 0 0
SMALL
GASTEIGER

@<TRIPOS>ATOM
      1 C          15.3888   38.6847   10.5843 C.3     1  UNL1        0.2880
      2 C          15.4970   38.7184   12.1022 C.3     1  UNL1        0.0650
      3 C          13.9173   40.2770    9.3080 C.ar    1  UNL1        0.1542
      4 C          12.6180   40.6744    8.9787 C.ar    1  UNL1        0.0529
      5 C          12.4029   41.7043    8.0563 C.ar    1  UNL1        0.0535
      6 C          13.5069   42.3394    7.4659 C.ar    1  UNL1        0.0161
      7 C          14.8073   41.9471    7.7951 C.ar    1  UNL1        0.0190
      8 C          15.0107   40.9160    8.7153 C.ar    1  UNL1        0.0850
      9 C          16.5519   39.4553    9.9923 C.2     1  UNL1        0.2732
     10 O          14.1137   39.2452   10.2324 O.3     1  UNL1       -0.4618
     11 O          17.7353   39.1454   10.2968 O.2     1  UNL1       -0.2704
     12 N          16.3307   40.5194    9.0669 N.am    1  UNL1       -0.2783
     13 H          17.1009   40.9843    8.6673 H       1  UNL1        0.1551
     14 C           9.8585   41.4201    8.1775 C.2     1  UNL1        0.2707
     15 O           9.9040   40.4071    8.9241 O.2     1  UNL1       -0.2707
     16 N          11.0547   42.0823    7.7468 N.am    1  UNL1       -0.2808
     17 H          10.9387   42.8788    7.1800 H       1  UNL1        0.1550
     18 C           8.5348   41.9345    7.7258 C.3     1  UNL1        0.2897
     19 O           7.5081   40.9947    8.0287 O.3     1  UNL1       -0.4656
     20 C           6.5441   41.2023    9.0216 C.ar    1  UNL1        0.1390
     21 C           5.1693   41.1350    8.7411 C.ar    1  UNL1        0.0327
     22 C           4.2316   41.3470    9.7555 C.ar    1  UNL1       -0.0188
     23 C           2.7791   41.2764    9.4508 C.3     1  UNL1        0.0311
     24 C           4.6607   41.6255   11.0561 C.ar    1  UNL1       -0.0041
     25 C           6.0273   41.6915   11.3418 C.ar    1  UNL1        0.0028
     26 C           6.9655   41.4800   10.3266 C.ar    1  UNL1        0.0369
     27 C          15.4429   37.2622   10.0970 C.2     1  UNL1        0.3623
     28 O          16.4146   36.5189   10.4106 O.2     1  UNL1       -0.2457
     29 O          14.4430   36.7897    9.2430 O.3     1  UNL1       -0.4458
     30 C          12.4585   36.0538   10.3661 C.3     1  UNL1        0.0513
     31 C          13.6689   35.6416    9.5551 C.3     1  UNL1        0.2087
@<TRIPOS>BOND
     1    30    31    1
     2    31    29    1
     3    27    29    1
     4     1    27    1
     5     1     2    1
     6     1    10    1
     7     1     9    1
     8     3    10    1
     9     4     5   ar
    10     5    16    1
    11    18    14    1
    12    18    19    1
    13    20    19    1
    14    21    22   ar
    15    23    22    1
    16    24    25   ar
    17    26    20   ar
    18     6     7   ar
    19     8    12    1
    20     8     3   ar
    21    16    14   am
    22    12     9   am
    23    27    28    2
    24     3     4   ar
    25     5     6   ar
    26    14    15    2
    27    20    21   ar
    28    22    24   ar
    29    25    26   ar
    30     7     8   ar
    31     9    11    2
    32    16    17    1
    33    12    13    1
@<TRIPOS>MOLECULE
MolPort-035-706-961 CSSS03437789215 MCULE-9876989215 PubChem-91938286
 31 33 0 0 0
SMALL
GASTEIGER

@<TRIPOS>ATOM
      1 C           8.9728   41.4937    7.5646 C.3     1  UNL1        0.2880
      2 C           8.2646   42.5339    8.4210 C.3     1  UNL1        0.0650
      3 C          11.1559   40.4496    8.2525 C.ar    1  UNL1        0.1542
      4 C          12.5293   40.6150    8.4552 C.ar    1  UNL1        0.0529
      5 C          13.3297   39.5261    8.8179 C.ar    1  UNL1        0.0535
      6 C          12.7386   38.2633    8.9809 C.ar    1  UNL1        0.0161
      7 C          11.3654   38.0948    8.7824 C.ar    1  UNL1        0.0190
      8 C          10.5761   39.1881    8.4180 C.ar    1  UNL1        0.0850
      9 C           8.3608   40.1343    7.8375 C.2     1  UNL1        0.2732
     10 O          10.3710   41.5496    7.8901 O.3     1  UNL1       -0.4618
     11 O           7.1199   39.9609    7.6989 O.2     1  UNL1       -0.2704
     12 N           9.1755   39.0290    8.2274 N.am    1  UNL1       -0.2783
     13 H           8.7630   38.1458    8.3661 H       1  UNL1        0.1551
     14 C          15.4381   39.6992   10.2650 C.2     1  UNL1        0.2707
     15 O          14.8437   39.4373   11.3438 O.2     1  UNL1       -0.2707
     16 N          14.7337   39.7384    9.0171 N.am    1  UNL1       -0.2808
     17 H          15.2693   39.9311    8.2138 H       1  UNL1        0.1550
     18 C          16.9009   39.9825   10.2883 C.3     1  UNL1        0.2897
     19 O          17.3408   40.4239    9.0074 O.3     1  UNL1       -0.4656
     20 C          17.0392   41.6860    8.4835 C.ar    1  UNL1        0.1390
     21 C          15.8173   41.9455    7.8408 C.ar    1  UNL1        0.0327
     22 C          15.5465   43.2173    7.3285 C.ar    1  UNL1       -0.0188
     23 C          14.2528   43.4838    6.6480 C.3     1  UNL1        0.0311
     24 C          16.4928   44.2378    7.4564 C.ar    1  UNL1       -0.0041
     25 C          17.7094   43.9862    8.0968 C.ar    1  UNL1        0.0028
     26 C          17.9805   42.7135    8.6089 C.ar    1  UNL1        0.0369
     27 C           8.8019   41.8259    6.1071 C.2     1  UNL1        0.3623
     28 O           7.6677   42.1532    5.6580 O.2     1  UNL1       -0.2457
     29 O           9.8932   41.7075    5.2426 O.3     1  UNL1       -0.4458
     30 C           9.1837   39.5265    4.5489 C.3     1  UNL1        0.0513
     31 C          10.3621   40.4455    4.7927 C.3     1  UNL1        0.2087
@<TRIPOS>BOND
     1    30    31    1
     2    31    29    1
     3    27    29    1
     4     1    27    1
     5     1     2    1
     6     1    10    1
     7     1     9    1
     8     3    10    1
     9     4     5   ar
    10     5    16    1
    11    18    14    1
    12    18    19    1
    13    20    19    1
    14    21    22   ar
    15    23    22    1
    16    24    25   ar
    17    26    20   ar
    18     6     7   ar
    19     8    12    1
    20     8     3   ar
    21    16    14   am
    22    12     9   am
    23    27    28    2
    24     3     4   ar
    25     5     6   ar
    26    14    15    2
    27    20    21   ar
    28    22    24   ar
    29    25    26   ar
    30     7     8   ar
    31     9    11    2
    32    16    17    1
    33    12    13    1
@<TRIPOS>MOLECULE
MolPort-035-706-961 CSSS03437789215 MCULE-9876989215 PubChem-91938286
 31 33 0 0 0
SMALL
GASTEIGER

@<TRIPOS>ATOM
      1 C          15.1401   38.7214   10.4117 C.3     1  UNL1        0.2880
      2 C          15.1590   38.6833   11.9332 C.3     1  UNL1        0.0650
      3 C          13.6970   40.3332    9.1274 C.ar    1  UNL1        0.1542
      4 C          12.4075   40.7102    8.7409 C.ar    1  UNL1        0.0529
      5 C          12.2147   41.7779    7.8573 C.ar    1  UNL1        0.0535
      6 C          13.3311   42.4716    7.3643 C.ar    1  UNL1        0.0161
      7 C          14.6217   42.0998    7.7511 C.ar    1  UNL1        0.0190
      8 C          14.8029   41.0307    8.6317 C.ar    1  UNL1        0.0850
      9 C          16.3114   39.5522    9.9270 C.2     1  UNL1        0.2732
     10 O          13.8710   39.2630   10.0117 O.3     1  UNL1       -0.4618
     11 O          17.4841   39.2606   10.2861 O.2     1  UNL1       -0.2704
     12 N          16.1117   40.6540    9.0418 N.am    1  UNL1       -0.2783
     13 H          16.8893   41.1592    8.7111 H       1  UNL1        0.1551
     14 C           9.7799   42.3891    8.3745 C.2     1  UNL1        0.2707
     15 O           9.9252   42.3397    9.6244 O.2     1  UNL1       -0.2707
     16 N          10.8758   42.1332    7.4866 N.am    1  UNL1       -0.2808
     17 H          10.6901   42.2091    6.5228 H       1  UNL1        0.1550
     18 C           8.4397   42.7112    7.8081 C.3     1  UNL1        0.2897
     19 O           7.7207   41.5147    7.5247 O.3     1  UNL1       -0.4656
     20 C           8.2986   40.3969    6.9122 C.ar    1  UNL1        0.1390
     21 C           8.5875   40.3755    5.5377 C.ar    1  UNL1        0.0327
     22 C           9.1653   39.2434    4.9564 C.ar    1  UNL1       -0.0188
     23 C           9.4661   39.2271    3.5015 C.3     1  UNL1        0.0311
     24 C           9.4597   38.1270    5.7441 C.ar    1  UNL1       -0.0041
     25 C           9.1766   38.1434    7.1127 C.ar    1  UNL1        0.0028
     26 C           8.5980   39.2759    7.6941 C.ar    1  UNL1        0.0369
     27 C          15.2657   37.3267    9.8614 C.2     1  UNL1        0.3623
     28 O          15.9468   37.1130    8.8194 O.2     1  UNL1       -0.2457
     29 O          14.5714   36.2807   10.4745 O.3     1  UNL1       -0.4458
     30 C          12.1977   35.9606   10.5423 C.3     1  UNL1        0.0513
     31 C          13.4916   35.6183    9.8341 C.3     1  UNL1        0.2087
@<TRIPOS>BOND
     1    30    31    1
     2    31    29    1
     3    27    29    1
     4     1    27    1
     5     1     2    1
     6     1    10    1
     7     1     9    1
     8     3    10    1
     9     4     5   ar
    10     5    16    1
    11    18    14    1
    12    18    19    1
    13    20    19    1
    14    21    22   ar
    15    23    22    1
    16    24    25   ar
    17    26    20   ar
    18     6     7   ar
    19     8    12    1
    20     8     3   ar
    21    16    14   am
    22    12     9   am
    23    27    28    2
    24     3     4   ar
    25     5     6   ar
    26    14    15    2
    27    20    21   ar
    28    22    24   ar
    29    25    26   ar
    30     7     8   ar
    31     9    11    2
    32    16    17    1
    33    12    13    1
