@<TRIPOS>MOLECULE
Molport-051-860-976
 24 25 0 0 0
SMALL
GASTEIGER

@<TRIPOS>ATOM
      1 C          13.4970   42.7702    6.7662 C.ar    1  UNL1        0.2029
      2 C          11.6315   42.2326    7.5707 C.ar    1  UNL1        0.1002
      3 C          10.5349   41.9560    8.3819 C.ar    1  UNL1        0.0268
      4 C           9.3653   41.4841    7.7562 C.ar    1  UNL1        0.0268
      5 C           9.3226   41.3276    6.3512 C.ar    1  UNL1        0.0077
      6 C          10.4505   41.6188    5.5619 C.ar    1  UNL1        0.0191
      7 C          11.5918   42.0692    6.2197 C.ar    1  UNL1        0.0766
      8 N          12.8367   42.6803    7.9496 N.ar    1  UNL1       -0.2136
      9 N          12.7697   42.4050    5.6765 N.ar    1  UNL1       -0.3252
     10 H          13.0399   42.3910    4.7299 H       1  UNL1        0.1686
     11 C          15.4032   44.0204    5.6417 C.2     1  UNL1        0.4076
     12 O          14.6842   44.3945    4.6747 O.2     1  UNL1       -0.2260
     13 N          14.8546   43.2184    6.6925 N.am    1  UNL1       -0.2212
     14 H          15.4592   42.9539    7.4231 H       1  UNL1        0.1610
     15 C          17.6615   43.7391    6.5774 C.3     1  UNL1        0.2574
     16 O          16.7486   44.3838    5.7019 O.3     1  UNL1       -0.4303
     17 S           7.9018   41.1344    8.7376 S.3     1  UNL1       -0.1149
     18 C           6.9862   42.6846    8.3694 C.3     1  UNL1        0.0503
     19 C           7.8750   43.8647    8.7202 C.3     1  UNL1        0.0116
     20 C           6.6887   42.7785    6.8844 C.3     1  UNL1        0.0116
     21 C           5.6606   42.7655    9.1396 C.3     1  UNL1        0.0748
     22 C           4.6762   43.7524    8.5781 C.2     1  UNL1        0.1519
     23 C           5.1621   44.9152    7.7848 C.3     1  UNL1        0.0723
     24 O           3.4832   43.6353    8.8060 O.2     1  UNL1       -0.2960
@<TRIPOS>BOND
     1    15    16    1
     2    11    16    1
     3    11    13   am
     4     2     8   ar
     5     3     4   ar
     6     4    17    1
     7    18    17    1
     8    18    19    1
     9    18    20    1
    10    18    21    1
    11    21    22    1
    12    23    22    1
    13     5     6   ar
    14     7     9   ar
    15     7     2   ar
    16    13     1    1
    17     9     1   ar
    18    11    12    2
    19     1     8   ar
    20     2     3   ar
    21     4     5   ar
    22    22    24    2
    23     6     7   ar
    24    13    14    1
    25     9    10    1
@<TRIPOS>MOLECULE
Molport-051-860-976
 24 25 0 0 0
SMALL
GASTEIGER

@<TRIPOS>ATOM
      1 C          14.0727   42.3810    7.3073 C.ar    1  UNL1        0.2029
      2 C          12.0601   41.8448    7.5866 C.ar    1  UNL1        0.1002
      3 C          10.6731   41.7962    7.6921 C.ar    1  UNL1        0.0268
      4 C          10.0917   40.5698    8.0664 C.ar    1  UNL1        0.0268
      5 C          10.9058   39.4368    8.2982 C.ar    1  UNL1        0.0077
      6 C          12.3054   39.5223    8.1805 C.ar    1  UNL1        0.0191
      7 C          12.8424   40.7559    7.8226 C.ar    1  UNL1        0.0766
      8 N          12.8183   42.8990    7.2546 N.ar    1  UNL1       -0.2136
      9 N          14.1345   41.0667    7.6518 N.ar    1  UNL1       -0.3252
     10 H          14.9267   40.4905    7.7506 H       1  UNL1        0.1686
     11 C          15.4601   43.8806    5.7950 C.2     1  UNL1        0.4076
     12 O          14.6154   43.8407    4.8584 O.2     1  UNL1       -0.2260
     13 N          15.2288   43.1742    7.0179 N.am    1  UNL1       -0.2212
     14 H          15.9200   43.2388    7.7160 H       1  UNL1        0.1610
     15 C          17.9130   43.9954    5.6383 C.3     1  UNL1        0.2574
     16 O          16.6365   44.6165    5.6524 O.3     1  UNL1       -0.4303
     17 S           8.3055   40.4260    8.1938 S.3     1  UNL1       -0.1149
     18 C           7.9530   40.1868    6.4062 C.3     1  UNL1        0.0503
     19 C           6.5058   39.7529    6.2537 C.3     1  UNL1        0.0116
     20 C           8.1040   41.4999    5.6610 C.3     1  UNL1        0.0116
     21 C           8.8916   39.1524    5.7691 C.3     1  UNL1        0.0748
     22 C           9.4785   39.5755    4.4519 C.2     1  UNL1        0.1519
     23 C          10.8485   40.1570    4.4028 C.3     1  UNL1        0.0723
     24 O           8.8236   39.4899    3.4259 O.2     1  UNL1       -0.2960
@<TRIPOS>BOND
     1    15    16    1
     2    11    16    1
     3    11    13   am
     4     2     8   ar
     5     3     4   ar
     6     4    17    1
     7    18    17    1
     8    18    19    1
     9    18    20    1
    10    18    21    1
    11    21    22    1
    12    23    22    1
    13     5     6   ar
    14     7     9   ar
    15     7     2   ar
    16    13     1    1
    17     9     1   ar
    18    11    12    2
    19     1     8   ar
    20     2     3   ar
    21     4     5   ar
    22    22    24    2
    23     6     7   ar
    24    13    14    1
    25     9    10    1
@<TRIPOS>MOLECULE
Molport-051-860-976
 24 25 0 0 0
SMALL
GASTEIGER

@<TRIPOS>ATOM
      1 C          13.9590   42.1907    7.0253 C.ar    1  UNL1        0.2029
      2 C          11.9769   41.4930    6.9976 C.ar    1  UNL1        0.1002
      3 C          10.6421   41.2158    6.7176 C.ar    1  UNL1        0.0268
      4 C           9.9648   40.3360    7.5833 C.ar    1  UNL1        0.0268
      5 C          10.6436   39.7495    8.6767 C.ar    1  UNL1        0.0077
      6 C          11.9945   40.0515    8.9286 C.ar    1  UNL1        0.0191
      7 C          12.6245   40.9367    8.0581 C.ar    1  UNL1        0.0766
      8 N          12.8046   42.2990    6.3181 N.ar    1  UNL1       -0.2136
      9 N          13.8940   41.3632    8.1027 N.ar    1  UNL1       -0.3252
     10 H          14.5997   41.1355    8.7503 H       1  UNL1        0.1686
     11 C          15.1700   44.1604    5.9694 C.2     1  UNL1        0.4076
     12 O          14.0970   44.7424    5.6498 O.2     1  UNL1       -0.2260
     13 N          15.1436   42.9009    6.6485 N.am    1  UNL1       -0.2212
     14 H          16.0092   42.4900    6.8746 H       1  UNL1        0.1610
     15 C          17.6043   43.9812    5.6591 C.3     1  UNL1        0.2574
     16 O          16.4029   44.7374    5.6648 O.3     1  UNL1       -0.4303
     17 S           8.2486   39.9100    7.2663 S.3     1  UNL1       -0.1149
     18 C           7.4837   41.3903    8.0413 C.3     1  UNL1        0.0503
     19 C           6.0009   41.1236    8.2312 C.3     1  UNL1        0.0116
     20 C           8.0730   41.6249    9.4198 C.3     1  UNL1        0.0116
     21 C           7.6959   42.6550    7.1972 C.3     1  UNL1        0.0748
     22 C           6.8667   43.8330    7.6252 C.2     1  UNL1        0.1519
     23 C           7.3310   44.6995    8.7438 C.3     1  UNL1        0.0723
     24 O           5.7916   44.0593    7.0945 O.2     1  UNL1       -0.2960
@<TRIPOS>BOND
     1    15    16    1
     2    11    16    1
     3    11    13   am
     4     2     8   ar
     5     3     4   ar
     6     4    17    1
     7    18    17    1
     8    18    19    1
     9    18    20    1
    10    18    21    1
    11    21    22    1
    12    23    22    1
    13     5     6   ar
    14     7     9   ar
    15     7     2   ar
    16    13     1    1
    17     9     1   ar
    18    11    12    2
    19     1     8   ar
    20     2     3   ar
    21     4     5   ar
    22    22    24    2
    23     6     7   ar
    24    13    14    1
    25     9    10    1
@<TRIPOS>MOLECULE
Molport-051-860-976
 24 25 0 0 0
SMALL
GASTEIGER

@<TRIPOS>ATOM
      1 C          14.1446   42.3798    7.3883 C.ar    1  UNL1        0.2029
      2 C          12.2245   42.2061    8.2247 C.ar    1  UNL1        0.1002
      3 C          10.9641   42.4120    8.7779 C.ar    1  UNL1        0.0268
      4 C          10.2009   41.2735    9.0998 C.ar    1  UNL1        0.0268
      5 C          10.7079   39.9791    8.8392 C.ar    1  UNL1        0.0077
      6 C          11.9865   39.8087    8.2771 C.ar    1  UNL1        0.0191
      7 C          12.7153   40.9587    7.9866 C.ar    1  UNL1        0.0766
      8 N          13.1156   43.1353    7.8520 N.ar    1  UNL1       -0.2136
      9 N          13.9413   41.0364    7.4516 N.ar    1  UNL1       -0.3252
     10 H          14.5419   40.3071    7.1748 H       1  UNL1        0.1686
     11 C          15.4045   43.9053    5.7925 C.2     1  UNL1        0.4076
     12 O          14.3532   44.2765    5.2017 O.2     1  UNL1       -0.2260
     13 N          15.3430   42.9713    6.8752 N.am    1  UNL1       -0.2212
     14 H          16.1928   42.7153    7.3012 H       1  UNL1        0.1610
     15 C          17.8585   43.7379    5.7278 C.3     1  UNL1        0.2574
     16 O          16.6473   44.4011    5.3983 O.3     1  UNL1       -0.4303
     17 S           8.5533   41.4641    9.7898 S.3     1  UNL1       -0.1149
     18 C           7.7506   42.1907    8.3050 C.3     1  UNL1        0.0503
     19 C           7.3364   43.6152    8.6290 C.3     1  UNL1        0.0116
     20 C           8.7401   42.2659    7.1571 C.3     1  UNL1        0.0116
     21 C           6.5352   41.3706    7.8498 C.3     1  UNL1        0.0748
     22 C           6.6516   40.8074    6.4614 C.2     1  UNL1        0.1519
     23 C           6.8440   39.3434    6.2686 C.3     1  UNL1        0.0723
     24 O           6.6367   41.5459    5.4901 O.2     1  UNL1       -0.2960
@<TRIPOS>BOND
     1    15    16    1
     2    11    16    1
     3    11    13   am
     4     2     8   ar
     5     3     4   ar
     6     4    17    1
     7    18    17    1
     8    18    19    1
     9    18    20    1
    10    18    21    1
    11    21    22    1
    12    23    22    1
    13     5     6   ar
    14     7     9   ar
    15     7     2   ar
    16    13     1    1
    17     9     1   ar
    18    11    12    2
    19     1     8   ar
    20     2     3   ar
    21     4     5   ar
    22    22    24    2
    23     6     7   ar
    24    13    14    1
    25     9    10    1
@<TRIPOS>MOLECULE
Molport-051-860-976
 24 25 0 0 0
SMALL
GASTEIGER

@<TRIPOS>ATOM
      1 C          15.0015   39.7124    9.9081 C.ar    1  UNL1        0.2029
      2 C          13.3464   40.3348    8.7725 C.ar    1  UNL1        0.1002
      3 C          12.4607   40.7389    7.7780 C.ar    1  UNL1        0.0268
      4 C          11.1316   41.0046    8.1590 C.ar    1  UNL1        0.0268
      5 C          10.7293   40.8369    9.5045 C.ar    1  UNL1        0.0077
      6 C          11.6521   40.4249   10.4836 C.ar    1  UNL1        0.0191
      7 C          12.9596   40.1862   10.0694 C.ar    1  UNL1        0.0766
      8 N          14.6467   40.0385    8.6384 N.ar    1  UNL1       -0.2136
      9 N          13.9956   39.7888   10.8204 N.ar    1  UNL1       -0.3252
     10 H          14.0220   39.6001   11.7863 H       1  UNL1        0.1686
     11 C          16.7274   38.0190   10.6925 C.2     1  UNL1        0.4076
     12 O          15.8718   37.1017   10.8298 O.2     1  UNL1       -0.2260
     13 N          16.3375   39.3198   10.2405 N.am    1  UNL1       -0.2212
     14 H          17.0447   39.9988   10.1508 H       1  UNL1        0.1610
     15 C          19.1056   38.6144   10.4835 C.3     1  UNL1        0.2574
     16 O          18.0710   37.7788   10.9803 O.3     1  UNL1       -0.4303
     17 S           9.9266   41.5021    6.9230 S.3     1  UNL1       -0.1149
     18 C           9.5940   39.8357    6.2234 C.3     1  UNL1        0.0503
     19 C           9.8463   38.7996    7.3044 C.3     1  UNL1        0.0116
     20 C           8.1349   39.7154    5.8246 C.3     1  UNL1        0.0116
     21 C          10.4630   39.5461    4.9914 C.3     1  UNL1        0.0748
     22 C           9.7163   38.9485    3.8322 C.2     1  UNL1        0.1519
     23 C           9.9323   37.5209    3.4675 C.3     1  UNL1        0.0723
     24 O           8.9681   39.6360    3.1567 O.2     1  UNL1       -0.2960
@<TRIPOS>BOND
     1    15    16    1
     2    11    16    1
     3    11    13   am
     4     2     8   ar
     5     3     4   ar
     6     4    17    1
     7    18    17    1
     8    18    19    1
     9    18    20    1
    10    18    21    1
    11    21    22    1
    12    23    22    1
    13     5     6   ar
    14     7     9   ar
    15     7     2   ar
    16    13     1    1
    17     9     1   ar
    18    11    12    2
    19     1     8   ar
    20     2     3   ar
    21     4     5   ar
    22    22    24    2
    23     6     7   ar
    24    13    14    1
    25     9    10    1
@<TRIPOS>MOLECULE
Molport-051-860-976
 24 25 0 0 0
SMALL
GASTEIGER

@<TRIPOS>ATOM
      1 C          13.1013   40.4075    9.9817 C.ar    1  UNL1        0.2029
      2 C          11.4439   41.6240    9.5464 C.ar    1  UNL1        0.1002
      3 C          10.5282   42.5253    9.0113 C.ar    1  UNL1        0.0268
      4 C           9.2938   42.6687    9.6730 C.ar    1  UNL1        0.0268
      5 C           9.0084   41.8972   10.8234 C.ar    1  UNL1        0.0077
      6 C           9.9580   40.9940   11.3357 C.ar    1  UNL1        0.0191
      7 C          11.1716   40.8918   10.6613 C.ar    1  UNL1        0.0766
      8 N          12.6703   41.3358    9.0889 N.ar    1  UNL1       -0.2136
      9 N          12.2119   40.1039   10.9649 N.ar    1  UNL1       -0.3252
     10 H          12.3081   39.4674   11.7098 H       1  UNL1        0.1686
     11 C          15.0547   39.0795   10.9206 C.2     1  UNL1        0.4076
     12 O          14.5024   38.9225   12.0442 O.2     1  UNL1       -0.2260
     13 N          14.3961   39.8057    9.8780 N.am    1  UNL1       -0.2212
     14 H          14.8714   39.8988    9.0209 H       1  UNL1        0.1610
     15 C          17.5016   39.1622   11.1660 C.3     1  UNL1        0.2574
     16 O          16.3202   38.5459   10.6763 O.3     1  UNL1       -0.4303
     17 S           8.0524   43.7923    9.0219 S.3     1  UNL1       -0.1149
     18 C           7.1502   42.5788    7.9776 C.3     1  UNL1        0.0503
     19 C           5.9267   42.1019    8.7399 C.3     1  UNL1        0.0116
     20 C           6.6514   43.2460    6.7093 C.3     1  UNL1        0.0116
     21 C           8.0356   41.3868    7.5872 C.3     1  UNL1        0.0748
     22 C           7.6086   40.6824    6.3302 C.2     1  UNL1        0.1519
     23 C           6.5049   39.6839    6.3780 C.3     1  UNL1        0.0723
     24 O           8.1902   40.8872    5.2773 O.2     1  UNL1       -0.2960
@<TRIPOS>BOND
     1    15    16    1
     2    11    16    1
     3    11    13   am
     4     2     8   ar
     5     3     4   ar
     6     4    17    1
     7    18    17    1
     8    18    19    1
     9    18    20    1
    10    18    21    1
    11    21    22    1
    12    23    22    1
    13     5     6   ar
    14     7     9   ar
    15     7     2   ar
    16    13     1    1
    17     9     1   ar
    18    11    12    2
    19     1     8   ar
    20     2     3   ar
    21     4     5   ar
    22    22    24    2
    23     6     7   ar
    24    13    14    1
    25     9    10    1
@<TRIPOS>MOLECULE
Molport-051-860-976
 24 25 0 0 0
SMALL
GASTEIGER

@<TRIPOS>ATOM
      1 C          12.7405   41.8949    7.8899 C.ar    1  UNL1        0.2029
      2 C          10.6431   41.7837    7.8205 C.ar    1  UNL1        0.1002
      3 C           9.2991   41.7570    7.4601 C.ar    1  UNL1        0.0268
      4 C           8.3542   41.5613    8.4854 C.ar    1  UNL1        0.0268
      5 C           8.7806   41.3772    9.8213 C.ar    1  UNL1        0.0077
      6 C          10.1486   41.4086   10.1490 C.ar    1  UNL1        0.0191
      7 C          11.0502   41.6189    9.1092 C.ar    1  UNL1        0.0766
      8 N          11.7015   41.9618    7.0178 N.ar    1  UNL1       -0.2136
      9 N          12.3863   41.6846    9.1861 N.ar    1  UNL1       -0.3252
     10 H          12.9642   41.6018    9.9788 H       1  UNL1        0.1686
     11 C          14.6394   43.1868    6.8007 C.2     1  UNL1        0.4076
     12 O          13.9133   44.1889    6.5541 O.2     1  UNL1       -0.2260
     13 N          14.0980   42.0365    7.4578 N.am    1  UNL1       -0.2212
     14 H          14.7079   41.2822    7.6261 H       1  UNL1        0.1610
     15 C          17.0146   43.5003    7.3613 C.3     1  UNL1        0.2574
     16 O          15.9856   43.1847    6.4356 O.3     1  UNL1       -0.4303
     17 S           6.6036   41.4864    8.0894 S.3     1  UNL1       -0.1149
     18 C           6.2054   43.2509    8.4137 C.3     1  UNL1        0.0503
     19 C           7.4930   43.9819    8.7505 C.3     1  UNL1        0.0116
     20 C           5.6400   43.8998    7.1640 C.3     1  UNL1        0.0116
     21 C           5.1865   43.4101    9.5510 C.3     1  UNL1        0.0748
     22 C           3.7865   42.9985    9.1917 C.2     1  UNL1        0.1519
     23 C           3.3716   41.5757    9.3359 C.3     1  UNL1        0.0723
     24 O           2.9988   43.8124    8.7379 O.2     1  UNL1       -0.2960
@<TRIPOS>BOND
     1    15    16    1
     2    11    16    1
     3    11    13   am
     4     2     8   ar
     5     3     4   ar
     6     4    17    1
     7    18    17    1
     8    18    19    1
     9    18    20    1
    10    18    21    1
    11    21    22    1
    12    23    22    1
    13     5     6   ar
    14     7     9   ar
    15     7     2   ar
    16    13     1    1
    17     9     1   ar
    18    11    12    2
    19     1     8   ar
    20     2     3   ar
    21     4     5   ar
    22    22    24    2
    23     6     7   ar
    24    13    14    1
    25     9    10    1
@<TRIPOS>MOLECULE
Molport-051-860-976
 24 25 0 0 0
SMALL
GASTEIGER

@<TRIPOS>ATOM
      1 C          15.3302   39.7251   10.0036 C.ar    1  UNL1        0.2029
      2 C          13.5506   40.5731    9.2755 C.ar    1  UNL1        0.1002
      3 C          12.5584   41.2227    8.5471 C.ar    1  UNL1        0.0268
      4 C          11.2623   41.2527    9.0960 C.ar    1  UNL1        0.0268
      5 C          10.9974   40.6185   10.3322 C.ar    1  UNL1        0.0077
      6 C          12.0253   39.9694   11.0407 C.ar    1  UNL1        0.0191
      7 C          13.2957   39.9743   10.4714 C.ar    1  UNL1        0.0766
      8 N          14.8429   40.4301    8.9500 N.ar    1  UNL1       -0.2136
      9 N          14.4138   39.4227   10.9621 N.ar    1  UNL1       -0.3252
     10 H          14.5399   38.9253   11.8023 H       1  UNL1        0.1686
     11 C          17.1785   38.0233   10.3894 C.2     1  UNL1        0.4076
     12 O          16.3665   37.0860   10.6229 O.2     1  UNL1       -0.2260
     13 N          16.7065   39.3386   10.0803 N.am    1  UNL1       -0.2212
     14 H          17.3823   40.0330    9.9066 H       1  UNL1        0.1610
     15 C          19.4861   38.7164    9.8911 C.3     1  UNL1        0.2574
     16 O          18.5534   37.7913   10.4290 O.3     1  UNL1       -0.4303
     17 S           9.9257   42.0482    8.1971 S.3     1  UNL1       -0.1149
     18 C           9.1224   42.8685    9.6320 C.3     1  UNL1        0.0503
     19 C          10.1871   43.6070   10.4237 C.3     1  UNL1        0.0116
     20 C           8.1252   43.9069    9.1525 C.3     1  UNL1        0.0116
     21 C           8.3879   41.8638   10.5308 C.3     1  UNL1        0.0748
     22 C           6.9932   41.5320   10.0798 C.2     1  UNL1        0.1519
     23 C           5.8499   41.7023   11.0186 C.3     1  UNL1        0.0723
     24 O           6.7941   41.0794    8.9642 O.2     1  UNL1       -0.2960
@<TRIPOS>BOND
     1    15    16    1
     2    11    16    1
     3    11    13   am
     4     2     8   ar
     5     3     4   ar
     6     4    17    1
     7    18    17    1
     8    18    19    1
     9    18    20    1
    10    18    21    1
    11    21    22    1
    12    23    22    1
    13     5     6   ar
    14     7     9   ar
    15     7     2   ar
    16    13     1    1
    17     9     1   ar
    18    11    12    2
    19     1     8   ar
    20     2     3   ar
    21     4     5   ar
    22    22    24    2
    23     6     7   ar
    24    13    14    1
    25     9    10    1
@<TRIPOS>MOLECULE
Molport-051-860-976
 24 25 0 0 0
SMALL
GASTEIGER

@<TRIPOS>ATOM
      1 C           8.6310   42.2828    9.0184 C.ar    1  UNL1        0.2029
      2 C          10.2670   41.3180    9.9178 C.ar    1  UNL1        0.1002
      3 C          11.1625   40.6837   10.7737 C.ar    1  UNL1        0.0268
      4 C          12.4115   40.3058   10.2450 C.ar    1  UNL1        0.0268
      5 C          12.7129   40.5511    8.8851 C.ar    1  UNL1        0.0077
      6 C          11.7821   41.1936    8.0481 C.ar    1  UNL1        0.0191
      7 C          10.5646   41.5642    8.6123 C.ar    1  UNL1        0.0766
      8 N           9.0372   41.7657   10.2068 N.ar    1  UNL1       -0.2136
      9 N           9.5381   42.1801    8.0102 N.ar    1  UNL1       -0.3252
     10 H           9.4603   42.4814    7.0762 H       1  UNL1        0.1686
     11 C           7.0880   44.2929    8.8195 C.2     1  UNL1        0.4076
     12 O           8.0336   45.1213    8.9279 O.2     1  UNL1       -0.2260
     13 N           7.3420   42.8851    8.8593 N.am    1  UNL1       -0.2212
     14 H           6.5685   42.2826    8.7702 H       1  UNL1        0.1610
     15 C           4.6741   43.8426    8.6622 C.3     1  UNL1        0.2574
     16 O           5.7758   44.7380    8.6585 O.3     1  UNL1       -0.4303
     17 S          13.6056   39.4566   11.2843 S.3     1  UNL1       -0.1149
     18 C          14.9847   39.3973   10.0712 C.3     1  UNL1        0.0503
     19 C          14.7344   38.2471    9.1121 C.3     1  UNL1        0.0116
     20 C          15.0106   40.6686    9.2432 C.3     1  UNL1        0.0116
     21 C          16.3476   39.2337   10.7587 C.3     1  UNL1        0.0748
     22 C          16.7158   37.8116   11.0759 C.2     1  UNL1        0.1519
     23 C          17.7118   37.0970   10.2304 C.3     1  UNL1        0.0723
     24 O          16.1704   37.2206   11.9936 O.2     1  UNL1       -0.2960
@<TRIPOS>BOND
     1    15    16    1
     2    11    16    1
     3    11    13   am
     4     2     8   ar
     5     3     4   ar
     6     4    17    1
     7    18    17    1
     8    18    19    1
     9    18    20    1
    10    18    21    1
    11    21    22    1
    12    23    22    1
    13     5     6   ar
    14     7     9   ar
    15     7     2   ar
    16    13     1    1
    17     9     1   ar
    18    11    12    2
    19     1     8   ar
    20     2     3   ar
    21     4     5   ar
    22    22    24    2
    23     6     7   ar
    24    13    14    1
    25     9    10    1
@<TRIPOS>MOLECULE
Molport-051-860-976
 24 25 0 0 0
SMALL
GASTEIGER

@<TRIPOS>ATOM
      1 C          15.4350   38.8905    9.8817 C.ar    1  UNL1        0.2029
      2 C          13.5148   39.1114    9.0570 C.ar    1  UNL1        0.1002
      3 C          12.3817   39.1334    8.2492 C.ar    1  UNL1        0.0268
      4 C          11.1921   39.6355    8.8104 C.ar    1  UNL1        0.0268
      5 C          11.1683   40.0735   10.1550 C.ar    1  UNL1        0.0077
      6 C          12.3333   40.0352   10.9431 C.ar    1  UNL1        0.0191
      7 C          13.4922   39.5454   10.3472 C.ar    1  UNL1        0.0766
      8 N          14.7433   38.6863    8.7309 N.ar    1  UNL1       -0.2136
      9 N          14.7052   39.4166   10.9017 N.ar    1  UNL1       -0.3252
     10 H          14.9944   39.6447   11.8147 H       1  UNL1        0.1686
     11 C          17.3998   37.7229   10.9941 C.2     1  UNL1        0.4076
     12 O          16.6754   37.1876   11.8777 O.2     1  UNL1       -0.2260
     13 N          16.8256   38.5691    9.9928 N.am    1  UNL1       -0.2212
     14 H          17.4357   38.9614    9.3271 H       1  UNL1        0.1610
     15 C          19.6524   38.2584   10.1614 C.3     1  UNL1        0.2574
     16 O          18.7763   37.4976   10.9793 O.3     1  UNL1       -0.4303
     17 S           9.6836   39.6666    7.8352 S.3     1  UNL1       -0.1149
     18 C           9.9230   41.3203    7.0703 C.3     1  UNL1        0.0503
     19 C          10.7401   42.1777    8.0205 C.3     1  UNL1        0.0116
     20 C          10.7223   41.1943    5.7867 C.3     1  UNL1        0.0116
     21 C           8.5861   42.0032    6.7487 C.3     1  UNL1        0.0748
     22 C           7.4565   41.0533    6.4656 C.2     1  UNL1        0.1519
     23 C           6.4419   40.7726    7.5188 C.3     1  UNL1        0.0723
     24 O           7.3890   40.4729    5.3944 O.2     1  UNL1       -0.2960
@<TRIPOS>BOND
     1    15    16    1
     2    11    16    1
     3    11    13   am
     4     2     8   ar
     5     3     4   ar
     6     4    17    1
     7    18    17    1
     8    18    19    1
     9    18    20    1
    10    18    21    1
    11    21    22    1
    12    23    22    1
    13     5     6   ar
    14     7     9   ar
    15     7     2   ar
    16    13     1    1
    17     9     1   ar
    18    11    12    2
    19     1     8   ar
    20     2     3   ar
    21     4     5   ar
    22    22    24    2
    23     6     7   ar
    24    13    14    1
    25     9    10    1
