@<TRIPOS>MOLECULE
MolPort-002-787-474 9777769 CSC020585273 CSSS00020585273 LN01105203 MCULE-8780350523 PubChem-17094991 ZINC000009777769
 21 21 0 0 0
SMALL
GASTEIGER

@<TRIPOS>ATOM
      1 C          14.5469   40.2069    9.2499 C.ar    1  UNL1        0.1398
      2 C          14.1197   39.7950   10.5223 C.ar    1  UNL1        0.0370
      3 C          12.8243   39.3058   10.7046 C.ar    1  UNL1        0.0044
      4 C          11.9497   39.2255    9.6182 C.ar    1  UNL1        0.0149
      5 C          12.3645   39.6339    8.3420 C.ar    1  UNL1        0.0533
      6 C          13.6640   40.1225    8.1682 C.ar    1  UNL1        0.0515
      7 C          10.9087   40.6695    6.5036 C.2     1  UNL1        0.2267
      8 O          11.1266   41.8585    6.8577 O.2     1  UNL1       -0.2748
      9 N          11.4963   39.5647    7.2029 N.am    1  UNL1       -0.2838
     10 H          11.2814   38.6649    6.8661 H       1  UNL1        0.1549
     11 C           9.9966   40.4035    5.3548 C.3     1  UNL1        0.0970
     12 C          10.7049   39.5972    4.2752 C.3     1  UNL1        0.1189
     13 C           9.7538   38.6877    3.5730 C.2     1  UNL1        0.3143
     14 O           9.8073   37.3169    3.7906 O.3     1  UNL1       -0.4802
     15 O           8.9060   39.1632    2.7745 O.2     1  UNL1       -0.2503
     16 H          10.4382   36.9612    4.3851 H       1  UNL1        0.2951
     17 O          15.8363   40.6997    9.0334 O.3     1  UNL1       -0.4754
     18 C          16.0917   41.8878    8.2942 C.3     1  UNL1        0.2054
     19 C          17.4908   42.4039    8.5923 C.3     1  UNL1        0.0473
     20 C          16.5074   44.2438    7.2206 C.3     1  UNL1        0.0001
     21 C          17.6606   43.8385    8.1187 C.3     1  UNL1        0.0038
@<TRIPOS>BOND
     1    20    21    1
     2    21    19    1
     3    19    18    1
     4    18    17    1
     5     1    17    1
     6     2     3   ar
     7     4     5   ar
     8     5     9    1
     9    11     7    1
    10    11    12    1
    11    12    13    1
    12    13    14    1
    13     6     1   ar
    14     9     7   am
    15     1     2   ar
    16     3     4   ar
    17     5     6   ar
    18     7     8    2
    19    13    15    2
    20    14    16    1
    21     9    10    1
@<TRIPOS>MOLECULE
MolPort-002-787-474 9777769 CSC020585273 CSSS00020585273 LN01105203 MCULE-8780350523 PubChem-17094991 ZINC000009777769
 21 21 0 0 0
SMALL
GASTEIGER

@<TRIPOS>ATOM
      1 C           5.7911   42.7845    8.5483 C.ar    1  UNL1        0.1398
      2 C           5.7367   43.9366    7.7477 C.ar    1  UNL1        0.0370
      3 C           6.5654   44.0556    6.6299 C.ar    1  UNL1        0.0044
      4 C           7.4520   43.0257    6.3060 C.ar    1  UNL1        0.0149
      5 C           7.5160   41.8696    7.0979 C.ar    1  UNL1        0.0533
      6 C           6.6820   41.7585    8.2158 C.ar    1  UNL1        0.0515
      7 C           8.0777   39.5518    6.1577 C.2     1  UNL1        0.2267
      8 O           6.8997   39.3028    5.7879 O.2     1  UNL1       -0.2748
      9 N           8.4114   40.7910    6.7964 N.am    1  UNL1       -0.2838
     10 H           9.3534   40.9144    7.0548 H       1  UNL1        0.1549
     11 C           9.1403   38.5257    5.9567 C.3     1  UNL1        0.0970
     12 C          10.0341   38.8936    4.7807 C.3     1  UNL1        0.1189
     13 C           9.4452   38.4275    3.4919 C.2     1  UNL1        0.3143
     14 O           9.4974   37.0836    3.1448 O.3     1  UNL1       -0.4802
     15 O           8.9071   39.2558    2.7130 O.2     1  UNL1       -0.2503
     16 H           9.8979   36.4653    3.7239 H       1  UNL1        0.2951
     17 O           4.9750   42.6335    9.6723 O.3     1  UNL1       -0.4754
     18 C           3.5818   42.9199    9.6553 C.3     1  UNL1        0.2054
     19 C           2.8092   41.8229   10.3711 C.3     1  UNL1        0.0473
     20 C           4.0677   40.0804   11.6414 C.3     1  UNL1        0.0001
     21 C           3.4592   41.4687   11.6990 C.3     1  UNL1        0.0038
@<TRIPOS>BOND
     1    20    21    1
     2    21    19    1
     3    19    18    1
     4    18    17    1
     5     1    17    1
     6     2     3   ar
     7     4     5   ar
     8     5     9    1
     9    11     7    1
    10    11    12    1
    11    12    13    1
    12    13    14    1
    13     6     1   ar
    14     9     7   am
    15     1     2   ar
    16     3     4   ar
    17     5     6   ar
    18     7     8    2
    19    13    15    2
    20    14    16    1
    21     9    10    1
@<TRIPOS>MOLECULE
MolPort-002-787-474 9777769 CSC020585273 CSSS00020585273 LN01105203 MCULE-8780350523 PubChem-17094991 ZINC000009777769
 21 21 0 0 0
SMALL
GASTEIGER

@<TRIPOS>ATOM
      1 C          15.4783   41.7554    7.9930 C.ar    1  UNL1        0.1398
      2 C          16.1901   42.9396    7.7439 C.ar    1  UNL1        0.0370
      3 C          15.6825   43.8915    6.8569 C.ar    1  UNL1        0.0044
      4 C          14.4625   43.6661    6.2148 C.ar    1  UNL1        0.0149
      5 C          13.7417   42.4869    6.4552 C.ar    1  UNL1        0.0533
      6 C          14.2574   41.5387    7.3453 C.ar    1  UNL1        0.0515
      7 C          11.6103   41.1150    6.0723 C.2     1  UNL1        0.2267
      8 O          11.8952   40.2405    6.9328 O.2     1  UNL1       -0.2748
      9 N          12.4857   42.2210    5.8166 N.am    1  UNL1       -0.2838
     10 H          12.1943   42.8649    5.1312 H       1  UNL1        0.1549
     11 C          10.3539   40.9813    5.2810 C.3     1  UNL1        0.0970
     12 C          10.5202   39.9559    4.1684 C.3     1  UNL1        0.1189
     13 C           9.2183   39.3080    3.8361 C.2     1  UNL1        0.3143
     14 O           8.3717   38.8789    4.8502 O.3     1  UNL1       -0.4802
     15 O           8.8900   39.1421    2.6331 O.2     1  UNL1       -0.2503
     16 H           8.6148   39.0018    5.7467 H       1  UNL1        0.2951
     17 O          15.9575   40.7837    8.8753 O.3     1  UNL1       -0.4754
     18 C          15.1021   39.8726    9.5546 C.3     1  UNL1        0.2054
     19 C          13.8064   40.5621    9.9520 C.3     1  UNL1        0.0473
     20 C          13.9562   38.8450   11.7585 C.3     1  UNL1        0.0001
     21 C          13.0222   39.7263   10.9510 C.3     1  UNL1        0.0038
@<TRIPOS>BOND
     1    20    21    1
     2    21    19    1
     3    19    18    1
     4    18    17    1
     5     1    17    1
     6     2     3   ar
     7     4     5   ar
     8     5     9    1
     9    11     7    1
    10    11    12    1
    11    12    13    1
    12    13    14    1
    13     6     1   ar
    14     9     7   am
    15     1     2   ar
    16     3     4   ar
    17     5     6   ar
    18     7     8    2
    19    13    15    2
    20    14    16    1
    21     9    10    1
@<TRIPOS>MOLECULE
MolPort-002-787-474 9777769 CSC020585273 CSSS00020585273 LN01105203 MCULE-8780350523 PubChem-17094991 ZINC000009777769
 21 21 0 0 0
SMALL
GASTEIGER

@<TRIPOS>ATOM
      1 C          14.0922   39.9646    9.5847 C.ar    1  UNL1        0.1398
      2 C          13.3985   39.9499   10.8051 C.ar    1  UNL1        0.0370
      3 C          12.0043   39.8679   10.8203 C.ar    1  UNL1        0.0044
      4 C          11.2964   39.8002    9.6178 C.ar    1  UNL1        0.0149
      5 C          11.9780   39.8142    8.3918 C.ar    1  UNL1        0.0533
      6 C          13.3746   39.8963    8.3858 C.ar    1  UNL1        0.0515
      7 C          10.7291   40.8421    6.4031 C.2     1  UNL1        0.2267
      8 O          10.8125   42.0244    6.8294 O.2     1  UNL1       -0.2748
      9 N          11.2864   39.7446    7.1376 N.am    1  UNL1       -0.2838
     10 H          11.1837   38.8500    6.7396 H       1  UNL1        0.1549
     11 C          10.0091   40.5740    5.1254 C.3     1  UNL1        0.0970
     12 C           9.3961   39.1806    5.1304 C.3     1  UNL1        0.1189
     13 C           9.4318   38.5733    3.7684 C.2     1  UNL1        0.3143
     14 O           9.8262   37.2519    3.6022 O.3     1  UNL1       -0.4802
     15 O           9.1118   39.2630    2.7663 O.2     1  UNL1       -0.2503
     16 H          10.0649   36.7368    4.3477 H       1  UNL1        0.2951
     17 O          15.4863   40.0445    9.5347 O.3     1  UNL1       -0.4754
     18 C          16.3278   39.4115   10.4909 C.3     1  UNL1        0.2054
     19 C          17.7866   39.7293   10.2019 C.3     1  UNL1        0.0473
     20 C          17.8544   37.3439   10.9363 C.3     1  UNL1        0.0001
     21 C          18.6847   38.5513   10.5442 C.3     1  UNL1        0.0038
@<TRIPOS>BOND
     1    20    21    1
     2    21    19    1
     3    19    18    1
     4    18    17    1
     5     1    17    1
     6     2     3   ar
     7     4     5   ar
     8     5     9    1
     9    11     7    1
    10    11    12    1
    11    12    13    1
    12    13    14    1
    13     6     1   ar
    14     9     7   am
    15     1     2   ar
    16     3     4   ar
    17     5     6   ar
    18     7     8    2
    19    13    15    2
    20    14    16    1
    21     9    10    1
@<TRIPOS>MOLECULE
MolPort-002-787-474 9777769 CSC020585273 CSSS00020585273 LN01105203 MCULE-8780350523 PubChem-17094991 ZINC000009777769
 21 21 0 0 0
SMALL
GASTEIGER

@<TRIPOS>ATOM
      1 C          10.3162   41.5250    9.1850 C.ar    1  UNL1        0.1398
      2 C          11.0113   42.7001    9.5120 C.ar    1  UNL1        0.0370
      3 C          10.3297   43.7928   10.0525 C.ar    1  UNL1        0.0044
      4 C           8.9516   43.7176   10.2691 C.ar    1  UNL1        0.0149
      5 C           8.2457   42.5491    9.9465 C.ar    1  UNL1        0.0533
      6 C           8.9364   41.4592    9.4057 C.ar    1  UNL1        0.0515
      7 C           6.1761   41.7006   11.1988 C.2     1  UNL1        0.2267
      8 O           6.8336   41.0652   12.0651 O.2     1  UNL1       -0.2748
      9 N           6.8319   42.4337   10.1560 N.am    1  UNL1       -0.2838
     10 H           6.2512   42.9071    9.5174 H       1  UNL1        0.1549
     11 C           4.6862   41.6642   11.2388 C.3     1  UNL1        0.0970
     12 C           4.1323   40.8472   10.0799 C.3     1  UNL1        0.1189
     13 C           3.0641   41.5964    9.3568 C.2     1  UNL1        0.3143
     14 O           2.1896   40.9257    8.5114 O.3     1  UNL1       -0.4802
     15 O           2.9606   42.8410    9.5068 O.2     1  UNL1       -0.2503
     16 H           2.2654   39.9986    8.3987 H       1  UNL1        0.2951
     17 O          10.9682   40.4139    8.6441 O.3     1  UNL1       -0.4754
     18 C          11.6765   39.4735    9.4425 C.3     1  UNL1        0.2054
     19 C          12.0840   40.1051   10.7645 C.3     1  UNL1        0.0473
     20 C          13.5049   38.0625   10.9716 C.3     1  UNL1        0.0001
     21 C          13.4123   39.5502   11.2531 C.3     1  UNL1        0.0038
@<TRIPOS>BOND
     1    20    21    1
     2    21    19    1
     3    19    18    1
     4    18    17    1
     5     1    17    1
     6     2     3   ar
     7     4     5   ar
     8     5     9    1
     9    11     7    1
    10    11    12    1
    11    12    13    1
    12    13    14    1
    13     6     1   ar
    14     9     7   am
    15     1     2   ar
    16     3     4   ar
    17     5     6   ar
    18     7     8    2
    19    13    15    2
    20    14    16    1
    21     9    10    1
@<TRIPOS>MOLECULE
MolPort-002-787-474 9777769 CSC020585273 CSSS00020585273 LN01105203 MCULE-8780350523 PubChem-17094991 ZINC000009777769
 21 21 0 0 0
SMALL
GASTEIGER

@<TRIPOS>ATOM
      1 C           7.1489   42.5582    8.9190 C.ar    1  UNL1        0.1398
      2 C           6.3880   43.6406    8.4496 C.ar    1  UNL1        0.0370
      3 C           6.3529   43.9359    7.0850 C.ar    1  UNL1        0.0044
      4 C           7.0769   43.1525    6.1829 C.ar    1  UNL1        0.0149
      5 C           7.8411   42.0684    6.6394 C.ar    1  UNL1        0.0533
      6 C           7.8704   41.7795    8.0080 C.ar    1  UNL1        0.0515
      7 C          10.0205   41.2217    5.5884 C.2     1  UNL1        0.2267
      8 O          10.7634   41.9759    6.2709 O.2     1  UNL1       -0.2748
      9 N           8.5957   41.2407    5.7441 N.am    1  UNL1       -0.2838
     10 H           8.0817   40.6210    5.1774 H       1  UNL1        0.1549
     11 C          10.6315   40.3139    4.5759 C.3     1  UNL1        0.0970
     12 C          10.0847   38.9001    4.7148 C.3     1  UNL1        0.1189
     13 C           9.3980   38.4644    3.4644 C.2     1  UNL1        0.3143
     14 O           9.3375   37.1169    3.1329 O.3     1  UNL1       -0.4802
     15 O           8.8794   39.3212    2.7032 O.2     1  UNL1       -0.2503
     16 H           9.7233   36.4774    3.6989 H       1  UNL1        0.2951
     17 O           7.2043   42.2352   10.2773 O.3     1  UNL1       -0.4754
     18 C           6.2083   41.4512   10.9228 C.3     1  UNL1        0.2054
     19 C           5.1259   41.0535    9.9315 C.3     1  UNL1        0.0473
     20 C           3.2410   41.9383   11.3093 C.3     1  UNL1        0.0001
     21 C           3.8278   40.7081   10.6434 C.3     1  UNL1        0.0038
@<TRIPOS>BOND
     1    20    21    1
     2    21    19    1
     3    19    18    1
     4    18    17    1
     5     1    17    1
     6     2     3   ar
     7     4     5   ar
     8     5     9    1
     9    11     7    1
    10    11    12    1
    11    12    13    1
    12    13    14    1
    13     6     1   ar
    14     9     7   am
    15     1     2   ar
    16     3     4   ar
    17     5     6   ar
    18     7     8    2
    19    13    15    2
    20    14    16    1
    21     9    10    1
@<TRIPOS>MOLECULE
MolPort-002-787-474 9777769 CSC020585273 CSSS00020585273 LN01105203 MCULE-8780350523 PubChem-17094991 ZINC000009777769
 21 21 0 0 0
SMALL
GASTEIGER

@<TRIPOS>ATOM
      1 C          10.5724   41.4278    8.2810 C.ar    1  UNL1        0.1398
      2 C          11.3165   41.8839    9.3806 C.ar    1  UNL1        0.0370
      3 C          10.6848   42.1382   10.6001 C.ar    1  UNL1        0.0044
      4 C           9.3080   41.9383   10.7275 C.ar    1  UNL1        0.0149
      5 C           8.5534   41.4828    9.6362 C.ar    1  UNL1        0.0533
      6 C           9.1943   41.2304    8.4184 C.ar    1  UNL1        0.0515
      7 C           6.3348   41.3437   10.9127 C.2     1  UNL1        0.2267
      8 O           6.8407   41.6320   12.0296 O.2     1  UNL1       -0.2748
      9 N           7.1394   41.2643    9.7290 N.am    1  UNL1       -0.2838
     10 H           6.6725   41.0359    8.8928 H       1  UNL1        0.1549
     11 C           4.8763   41.0476   10.8244 C.3     1  UNL1        0.0970
     12 C           4.0688   42.3319   10.6982 C.3     1  UNL1        0.1189
     13 C           3.1481   42.2745    9.5261 C.2     1  UNL1        0.3143
     14 O           3.0765   43.3419    8.6402 O.3     1  UNL1       -0.4802
     15 O           2.4278   41.2593    9.3442 O.2     1  UNL1       -0.2503
     16 H           3.6124   44.0988    8.7743 H       1  UNL1        0.2951
     17 O          11.1738   41.1628    7.0479 O.3     1  UNL1       -0.4754
     18 C          12.1388   42.0276    6.4612 C.3     1  UNL1        0.2054
     19 C          13.5238   41.7211    7.0092 C.3     1  UNL1        0.0473
     20 C          15.8116   42.6160    7.4557 C.3     1  UNL1        0.0001
     21 C          14.4631   42.9020    6.8228 C.3     1  UNL1        0.0038
@<TRIPOS>BOND
     1    20    21    1
     2    21    19    1
     3    19    18    1
     4    18    17    1
     5     1    17    1
     6     2     3   ar
     7     4     5   ar
     8     5     9    1
     9    11     7    1
    10    11    12    1
    11    12    13    1
    12    13    14    1
    13     6     1   ar
    14     9     7   am
    15     1     2   ar
    16     3     4   ar
    17     5     6   ar
    18     7     8    2
    19    13    15    2
    20    14    16    1
    21     9    10    1
@<TRIPOS>MOLECULE
MolPort-002-787-474 9777769 CSC020585273 CSSS00020585273 LN01105203 MCULE-8780350523 PubChem-17094991 ZINC000009777769
 21 21 0 0 0
SMALL
GASTEIGER

@<TRIPOS>ATOM
      1 C          11.0018   40.9195    8.1253 C.ar    1  UNL1        0.1398
      2 C          10.7593   39.6302    7.6255 C.ar    1  UNL1        0.0370
      3 C           9.4689   39.2550    7.2451 C.ar    1  UNL1        0.0044
      4 C           8.4150   40.1645    7.3618 C.ar    1  UNL1        0.0149
      5 C           8.6444   41.4557    7.8599 C.ar    1  UNL1        0.0533
      6 C           9.9402   41.8233    8.2384 C.ar    1  UNL1        0.0515
      7 C           6.9234   43.1128    6.9304 C.2     1  UNL1        0.2267
      8 O           7.2335   42.9176    5.7253 O.2     1  UNL1       -0.2748
      9 N           7.5888   42.4171    7.9925 N.am    1  UNL1       -0.2838
     10 H           7.2901   42.6206    8.9083 H       1  UNL1        0.1549
     11 C           5.8659   44.1100    7.2617 C.3     1  UNL1        0.0970
     12 C           5.2889   43.8491    8.6460 C.3     1  UNL1        0.1189
     13 C           3.8089   44.0345    8.6547 C.2     1  UNL1        0.3143
     14 O           3.2538   45.2472    8.2669 O.3     1  UNL1       -0.4802
     15 O           3.0615   43.0919    9.0227 O.2     1  UNL1       -0.2503
     16 H           3.8091   45.9503    7.9926 H       1  UNL1        0.2951
     17 O          12.2808   41.3267    8.5134 O.3     1  UNL1       -0.4754
     18 C          13.2710   41.7442    7.5814 C.3     1  UNL1        0.2054
     19 C          14.6598   41.4072    8.1012 C.3     1  UNL1        0.0473
     20 C          16.9859   42.2639    8.4009 C.3     1  UNL1        0.0001
     21 C          15.6831   42.4339    7.6427 C.3     1  UNL1        0.0038
@<TRIPOS>BOND
     1    20    21    1
     2    21    19    1
     3    19    18    1
     4    18    17    1
     5     1    17    1
     6     2     3   ar
     7     4     5   ar
     8     5     9    1
     9    11     7    1
    10    11    12    1
    11    12    13    1
    12    13    14    1
    13     6     1   ar
    14     9     7   am
    15     1     2   ar
    16     3     4   ar
    17     5     6   ar
    18     7     8    2
    19    13    15    2
    20    14    16    1
    21     9    10    1
@<TRIPOS>MOLECULE
MolPort-002-787-474 9777769 CSC020585273 CSSS00020585273 LN01105203 MCULE-8780350523 PubChem-17094991 ZINC000009777769
 21 21 0 0 0
SMALL
GASTEIGER

@<TRIPOS>ATOM
      1 C          14.2520   40.6153    9.2709 C.ar    1  UNL1        0.1398
      2 C          14.4323   39.8719   10.4481 C.ar    1  UNL1        0.0370
      3 C          13.3430   39.5908   11.2756 C.ar    1  UNL1        0.0044
      4 C          12.0691   40.0501   10.9321 C.ar    1  UNL1        0.0149
      5 C          11.8760   40.7940    9.7586 C.ar    1  UNL1        0.0533
      6 C          12.9727   41.0708    8.9352 C.ar    1  UNL1        0.0515
      7 C          10.1596   41.6305    8.0482 C.2     1  UNL1        0.2267
      8 O          10.9378   41.5278    7.0632 O.2     1  UNL1       -0.2748
      9 N          10.5838   41.2807    9.3720 N.am    1  UNL1       -0.2838
     10 H           9.9189   41.3855   10.0904 H       1  UNL1        0.1549
     11 C           8.7803   42.1564    7.8395 C.3     1  UNL1        0.0970
     12 C           8.4299   43.1945    8.8962 C.3     1  UNL1        0.1189
     13 C           7.4149   44.1605    8.3845 C.2     1  UNL1        0.3143
     14 O           6.7896   43.9370    7.1645 O.3     1  UNL1       -0.4802
     15 O           7.1307   45.1853    9.0563 O.2     1  UNL1       -0.2503
     16 H           7.0002   43.1741    6.6629 H       1  UNL1        0.2951
     17 O          15.3203   40.9127    8.4207 O.3     1  UNL1       -0.4754
     18 C          15.3605   42.0857    7.6172 C.3     1  UNL1        0.2054
     19 C          16.6014   42.9034    7.9395 C.3     1  UNL1        0.0473
     20 C          17.5969   43.9841    5.9207 C.3     1  UNL1        0.0001
     21 C          16.6600   44.1691    7.0993 C.3     1  UNL1        0.0038
@<TRIPOS>BOND
     1    20    21    1
     2    21    19    1
     3    19    18    1
     4    18    17    1
     5     1    17    1
     6     2     3   ar
     7     4     5   ar
     8     5     9    1
     9    11     7    1
    10    11    12    1
    11    12    13    1
    12    13    14    1
    13     6     1   ar
    14     9     7   am
    15     1     2   ar
    16     3     4   ar
    17     5     6   ar
    18     7     8    2
    19    13    15    2
    20    14    16    1
    21     9    10    1
@<TRIPOS>MOLECULE
MolPort-002-787-474 9777769 CSC020585273 CSSS00020585273 LN01105203 MCULE-8780350523 PubChem-17094991 ZINC000009777769
 21 21 0 0 0
SMALL
GASTEIGER

@<TRIPOS>ATOM
      1 C          14.5924   40.6428    9.1641 C.ar    1  UNL1        0.1398
      2 C          14.6939   39.9198   10.3632 C.ar    1  UNL1        0.0370
      3 C          13.5415   39.5456   11.0581 C.ar    1  UNL1        0.0044
      4 C          12.2832   39.8913   10.5594 C.ar    1  UNL1        0.0149
      5 C          12.1685   40.6137    9.3624 C.ar    1  UNL1        0.0533
      6 C          13.3280   40.9842    8.6726 C.ar    1  UNL1        0.0515
      7 C           9.8972   40.1016    8.2898 C.2     1  UNL1        0.2267
      8 O          10.0745   38.8548    8.2643 O.2     1  UNL1       -0.2748
      9 N          10.8948   40.9849    8.8184 N.am    1  UNL1       -0.2838
     10 H          10.6835   41.9464    8.8068 H       1  UNL1        0.1549
     11 C           8.6392   40.6736    7.7305 C.3     1  UNL1        0.0970
     12 C           7.8742   39.6259    6.9341 C.3     1  UNL1        0.1189
     13 C           6.7805   40.2512    6.1354 C.2     1  UNL1        0.3143
     14 O           5.5478   39.6210    6.0238 O.3     1  UNL1       -0.4802
     15 O           6.9784   41.3490    5.5538 O.2     1  UNL1       -0.2503
     16 H           5.3989   38.8032    6.4563 H       1  UNL1        0.2951
     17 O          15.7252   41.0312    8.4441 O.3     1  UNL1       -0.4754
     18 C          16.9308   41.4484    9.0732 C.3     1  UNL1        0.2054
     19 C          17.7390   42.3289    8.1329 C.3     1  UNL1        0.0473
     20 C          16.4878   44.2349    7.1151 C.3     1  UNL1        0.0001
     21 C          17.3521   43.7917    8.2803 C.3     1  UNL1        0.0038
@<TRIPOS>BOND
     1    20    21    1
     2    21    19    1
     3    19    18    1
     4    18    17    1
     5     1    17    1
     6     2     3   ar
     7     4     5   ar
     8     5     9    1
     9    11     7    1
    10    11    12    1
    11    12    13    1
    12    13    14    1
    13     6     1   ar
    14     9     7   am
    15     1     2   ar
    16     3     4   ar
    17     5     6   ar
    18     7     8    2
    19    13    15    2
    20    14    16    1
    21     9    10    1
