@<TRIPOS>MOLECULE
MolPort-008-290-763 19521490 MCULE-5617834621 PubChem-46972310 ZINC000019521490
 30 32 0 0 0
SMALL
GASTEIGER

@<TRIPOS>ATOM
      1 C          10.4117   41.3743    5.8202 C.ar    1  UNL1        0.1880
      2 C           8.1142   40.7102    6.0007 C.ar    1  UNL1        0.1127
      3 N           9.9723   40.6794    4.7491 N.ar    1  UNL1       -0.1256
      4 N           8.6958   40.3124    4.8483 N.ar    1  UNL1       -0.1440
      5 S           9.1909   41.5680    6.9713 S.2     1  UNL1       -0.0347
      6 C          12.5498   41.9576    7.1050 C.2     1  UNL1        0.2556
      7 O          12.0800   41.5836    8.2132 O.2     1  UNL1       -0.2696
      8 N          11.7538   41.8666    5.9142 N.am    1  UNL1       -0.2591
      9 H          12.1724   42.1733    5.0775 H       1  UNL1        0.1571
     10 C          16.5485   43.4677    6.9131 C.ar    1  UNL1        0.0321
     11 C          16.2407   42.3925    7.7641 C.ar    1  UNL1       -0.0100
     12 C          14.9306   41.9192    7.8091 C.ar    1  UNL1        0.0061
     13 C          13.9289   42.4959    7.0194 C.ar    1  UNL1        0.1092
     14 C          14.2852   43.5671    6.1709 C.ar    1  UNL1        0.2618
     15 C          17.2753   41.7321    8.6115 C.3     1  UNL1        0.0322
     16 O          13.4302   44.1235    5.4321 O.2     1  UNL1       -0.2671
     17 N          15.5700   44.0127    6.1424 N.ar    1  UNL1       -0.3247
     18 H          15.8000   44.7576    5.5413 H       1  UNL1        0.1686
     19 C          18.5163   44.2762    8.1818 C.3     1  UNL1        0.0066
     20 C          17.9350   44.0178    6.8039 C.3     1  UNL1        0.0433
     21 C           6.6853   40.4471    6.3361 C.3     1  UNL1        0.0592
     22 C           6.4622   40.5126    7.8453 C.3     1  UNL1        0.0334
     23 C           5.5345   41.6076    8.2931 C.ar    1  UNL1       -0.0188
     24 C           4.4226   41.3642    9.1153 C.ar    1  UNL1        0.0326
     25 C           3.5835   42.4168    9.5143 C.ar    1  UNL1        0.1384
     26 C           3.8675   43.7183    9.0899 C.ar    1  UNL1        0.0369
     27 C           4.9756   43.9687    8.2762 C.ar    1  UNL1        0.0028
     28 C           5.8055   42.9162    7.8807 C.ar    1  UNL1       -0.0041
     29 C           2.5399   42.2036   11.7463 C.3     1  UNL1        0.2525
     30 O           2.4681   42.1970   10.3269 O.3     1  UNL1       -0.4714
@<TRIPOS>BOND
     1    19    20    1
     2    20    10    1
     3    11    12   ar
     4    13    14   ar
     5    13     6    1
     6    14    17   ar
     7     6     8   am
     8     1     5   ar
     9     2     5   ar
    10    21     2    1
    11    21    22    1
    12    22    23    1
    13    24    25   ar
    14    25    30    1
    15    26    27   ar
    16    28    23   ar
    17    29    30    1
    18    15    11    1
    19    17    10   ar
    20     8     1    1
    21     3     4   ar
    22    10    11   ar
    23    12    13   ar
    24    14    16    2
    25     6     7    2
    26     1     3   ar
    27     2     4   ar
    28    23    24   ar
    29    25    26   ar
    30    27    28   ar
    31    17    18    1
    32     8     9    1
@<TRIPOS>MOLECULE
MolPort-008-290-763 19521490 MCULE-5617834621 PubChem-46972310 ZINC000019521490
 30 32 0 0 0
SMALL
GASTEIGER

@<TRIPOS>ATOM
      1 C          10.3285   41.4622    5.9744 C.ar    1  UNL1        0.1880
      2 C           8.0182   40.8735    6.2348 C.ar    1  UNL1        0.1127
      3 N           9.8275   40.7900    4.9159 N.ar    1  UNL1       -0.1256
      4 N           8.5438   40.4650    5.0595 N.ar    1  UNL1       -0.1440
      5 S           9.1575   41.6880    7.1704 S.2     1  UNL1       -0.0347
      6 C          12.4910   42.0827    7.1996 C.2     1  UNL1        0.2556
      7 O          12.0100   41.8349    8.3381 O.2     1  UNL1       -0.2696
      8 N          11.6889   41.9089    6.0222 N.am    1  UNL1       -0.2591
      9 H          12.1168   42.1177    5.1604 H       1  UNL1        0.1571
     10 C          16.5455   43.4075    6.8651 C.ar    1  UNL1        0.0321
     11 C          16.2131   42.3721    7.7551 C.ar    1  UNL1       -0.0100
     12 C          14.8851   41.9589    7.8463 C.ar    1  UNL1        0.0061
     13 C          13.8896   42.5565    7.0643 C.ar    1  UNL1        0.1092
     14 C          14.2704   43.5859    6.1757 C.ar    1  UNL1        0.2618
     15 C          17.2393   41.6911    8.5964 C.3     1  UNL1        0.0322
     16 O          13.4218   44.1581    5.4417 O.2     1  UNL1       -0.2671
     17 N          15.5723   43.9730    6.1025 N.ar    1  UNL1       -0.3247
     18 H          15.8191   44.6894    5.4739 H       1  UNL1        0.1686
     19 C          18.5308   44.2990    8.0480 C.3     1  UNL1        0.0066
     20 C          17.9514   43.8922    6.7056 C.3     1  UNL1        0.0433
     21 C           6.5944   40.6556    6.6205 C.3     1  UNL1        0.0592
     22 C           6.0635   41.8406    7.4241 C.3     1  UNL1        0.0334
     23 C           5.6783   41.5134    8.8400 C.ar    1  UNL1       -0.0188
     24 C           6.5615   41.6790    9.9190 C.ar    1  UNL1        0.0326
     25 C           6.1600   41.3653   11.2272 C.ar    1  UNL1        0.1384
     26 C           4.8646   40.8893   11.4510 C.ar    1  UNL1        0.0369
     27 C           3.9785   40.7274   10.3827 C.ar    1  UNL1        0.0028
     28 C           4.3852   41.0394    9.0826 C.ar    1  UNL1       -0.0041
     29 C           8.4375   41.5567   12.1721 C.3     1  UNL1        0.2525
     30 O           7.0240   41.5163   12.3150 O.3     1  UNL1       -0.4714
@<TRIPOS>BOND
     1    19    20    1
     2    20    10    1
     3    11    12   ar
     4    13    14   ar
     5    13     6    1
     6    14    17   ar
     7     6     8   am
     8     1     5   ar
     9     2     5   ar
    10    21     2    1
    11    21    22    1
    12    22    23    1
    13    24    25   ar
    14    25    30    1
    15    26    27   ar
    16    28    23   ar
    17    29    30    1
    18    15    11    1
    19    17    10   ar
    20     8     1    1
    21     3     4   ar
    22    10    11   ar
    23    12    13   ar
    24    14    16    2
    25     6     7    2
    26     1     3   ar
    27     2     4   ar
    28    23    24   ar
    29    25    26   ar
    30    27    28   ar
    31    17    18    1
    32     8     9    1
@<TRIPOS>MOLECULE
MolPort-008-290-763 19521490 MCULE-5617834621 PubChem-46972310 ZINC000019521490
 30 32 0 0 0
SMALL
GASTEIGER

@<TRIPOS>ATOM
      1 C           5.3167   41.9812   10.1033 C.ar    1  UNL1        0.1880
      2 C           3.0912   42.0014   10.9969 C.ar    1  UNL1        0.1127
      3 N           4.5435   42.9592    9.5849 N.ar    1  UNL1       -0.1256
      4 N           3.3081   42.9719   10.0828 N.ar    1  UNL1       -0.1440
      5 S           4.4687   41.0631   11.2395 S.2     1  UNL1       -0.0347
      6 C           7.8339   41.8479   10.5597 C.2     1  UNL1        0.2556
      7 O           7.7027   42.0793   11.7918 O.2     1  UNL1       -0.2696
      8 N           6.6807   41.7940    9.7071 N.am    1  UNL1       -0.2591
      9 H           6.8434   41.6098    8.7538 H       1  UNL1        0.1571
     10 C          11.7413   41.1912    8.9451 C.ar    1  UNL1        0.0321
     11 C          11.4257   40.7341   10.2359 C.ar    1  UNL1       -0.0100
     12 C          10.1461   40.9609   10.7396 C.ar    1  UNL1        0.0061
     13 C           9.1803   41.6293    9.9779 C.ar    1  UNL1        0.1092
     14 C           9.5377   42.0617    8.6820 C.ar    1  UNL1        0.2618
     15 C          12.4132   40.0011   11.0798 C.3     1  UNL1        0.0322
     16 O           8.7111   42.6632    7.9463 O.2     1  UNL1       -0.2671
     17 N          10.7920   41.8293    8.2101 N.ar    1  UNL1       -0.3247
     18 H          11.0211   42.1344    7.3026 H       1  UNL1        0.1686
     19 C          13.3518   41.9871    7.2396 C.3     1  UNL1        0.0066
     20 C          13.0894   40.9709    8.3359 C.3     1  UNL1        0.0433
     21 C           1.7987   41.8239   11.7190 C.3     1  UNL1        0.0592
     22 C           1.7484   42.7061   12.9644 C.3     1  UNL1        0.0334
     23 C           0.5708   42.4515   13.8636 C.ar    1  UNL1       -0.0188
     24 C           0.5873   42.7615   15.2331 C.ar    1  UNL1        0.0326
     25 C          -0.5362   42.5114   16.0370 C.ar    1  UNL1        0.1384
     26 C          -1.6813   41.9536   15.4602 C.ar    1  UNL1        0.0369
     27 C          -1.7066   41.6479   14.0969 C.ar    1  UNL1        0.0028
     28 C          -0.5841   41.8972   13.3028 C.ar    1  UNL1       -0.0041
     29 C          -1.6163   43.4823   18.0388 C.3     1  UNL1        0.2525
     30 O          -0.5401   42.8060   17.4030 O.3     1  UNL1       -0.4714
@<TRIPOS>BOND
     1    19    20    1
     2    20    10    1
     3    11    12   ar
     4    13    14   ar
     5    13     6    1
     6    14    17   ar
     7     6     8   am
     8     1     5   ar
     9     2     5   ar
    10    21     2    1
    11    21    22    1
    12    22    23    1
    13    24    25   ar
    14    25    30    1
    15    26    27   ar
    16    28    23   ar
    17    29    30    1
    18    15    11    1
    19    17    10   ar
    20     8     1    1
    21     3     4   ar
    22    10    11   ar
    23    12    13   ar
    24    14    16    2
    25     6     7    2
    26     1     3   ar
    27     2     4   ar
    28    23    24   ar
    29    25    26   ar
    30    27    28   ar
    31    17    18    1
    32     8     9    1
@<TRIPOS>MOLECULE
MolPort-008-290-763 19521490 MCULE-5617834621 PubChem-46972310 ZINC000019521490
 30 32 0 0 0
SMALL
GASTEIGER

@<TRIPOS>ATOM
      1 C          10.3553   41.3072    6.0851 C.ar    1  UNL1        0.1880
      2 C           8.1032   40.4967    6.2379 C.ar    1  UNL1        0.1127
      3 N           9.8078   41.0255    4.8834 N.ar    1  UNL1       -0.1256
      4 N           8.5563   40.5774    4.9680 N.ar    1  UNL1       -0.1440
      5 S           9.2699   41.0017    7.3427 S.2     1  UNL1       -0.0347
      6 C          12.5672   41.6155    7.3401 C.2     1  UNL1        0.2556
      7 O          12.1823   40.9535    8.3413 O.2     1  UNL1       -0.2696
      8 N          11.6919   41.8053    6.2186 N.am    1  UNL1       -0.2591
      9 H          12.0457   42.3308    5.4650 H       1  UNL1        0.1571
     10 C          16.5118   43.2724    7.3066 C.ar    1  UNL1        0.0321
     11 C          16.2274   42.1443    8.0948 C.ar    1  UNL1       -0.0100
     12 C          14.9345   41.6237    8.0891 C.ar    1  UNL1        0.0061
     13 C          13.9273   42.2054    7.3100 C.ar    1  UNL1        0.1092
     14 C          14.2603   43.3311    6.5250 C.ar    1  UNL1        0.2618
     15 C          17.2694   41.4772    8.9278 C.3     1  UNL1        0.0322
     16 O          13.3995   43.8949    5.7988 O.2     1  UNL1       -0.2671
     17 N          15.5286   43.8222    6.5453 N.ar    1  UNL1       -0.3247
     18 H          15.7426   44.6050    5.9880 H       1  UNL1        0.1686
     19 C          18.2801   44.1636    5.8185 C.3     1  UNL1        0.0066
     20 C          17.8794   43.8756    7.2537 C.3     1  UNL1        0.0433
     21 C           6.7256   40.0510    6.5943 C.3     1  UNL1        0.0592
     22 C           6.3294   40.5678    7.9754 C.3     1  UNL1        0.0334
     23 C           6.5557   42.0398    8.1807 C.ar    1  UNL1       -0.0188
     24 C           7.5199   42.5371    9.0722 C.ar    1  UNL1        0.0326
     25 C           7.7021   43.9201    9.2310 C.ar    1  UNL1        0.1384
     26 C           6.9164   44.8049    8.4863 C.ar    1  UNL1        0.0369
     27 C           5.9589   44.3170    7.5931 C.ar    1  UNL1        0.0028
     28 C           5.7809   42.9392    7.4415 C.ar    1  UNL1       -0.0041
     29 C           9.8770   43.7762   10.3996 C.3     1  UNL1        0.2525
     30 O           8.6511   44.4373   10.1168 O.3     1  UNL1       -0.4714
@<TRIPOS>BOND
     1    19    20    1
     2    20    10    1
     3    11    12   ar
     4    13    14   ar
     5    13     6    1
     6    14    17   ar
     7     6     8   am
     8     1     5   ar
     9     2     5   ar
    10    21     2    1
    11    21    22    1
    12    22    23    1
    13    24    25   ar
    14    25    30    1
    15    26    27   ar
    16    28    23   ar
    17    29    30    1
    18    15    11    1
    19    17    10   ar
    20     8     1    1
    21     3     4   ar
    22    10    11   ar
    23    12    13   ar
    24    14    16    2
    25     6     7    2
    26     1     3   ar
    27     2     4   ar
    28    23    24   ar
    29    25    26   ar
    30    27    28   ar
    31    17    18    1
    32     8     9    1
@<TRIPOS>MOLECULE
MolPort-008-290-763 19521490 MCULE-5617834621 PubChem-46972310 ZINC000019521490
 30 32 0 0 0
SMALL
GASTEIGER

@<TRIPOS>ATOM
      1 C           4.6844   41.4968    9.3218 C.ar    1  UNL1        0.1880
      2 C           3.2539   41.7507   11.2300 C.ar    1  UNL1        0.1127
      3 N           3.6659   42.3583    9.1131 N.ar    1  UNL1       -0.1256
      4 N           2.8727   42.5011   10.1736 N.ar    1  UNL1       -0.1440
      5 S           4.6393   40.8573   10.8845 S.2     1  UNL1       -0.0347
      6 C           7.0817   41.3102    8.4382 C.2     1  UNL1        0.2556
      7 O           7.5953   41.6972    9.5223 O.2     1  UNL1       -0.2696
      8 N           5.6562   41.2024    8.3111 N.am    1  UNL1       -0.2591
      9 H           5.3113   40.8952    7.4417 H       1  UNL1        0.1571
     10 C           9.6214   40.3507    5.1313 C.ar    1  UNL1        0.0321
     11 C          10.1151   41.1176    6.2004 C.ar    1  UNL1       -0.0100
     12 C           9.2677   41.4173    7.2657 C.ar    1  UNL1        0.0061
     13 C           7.9439   40.9626    7.2829 C.ar    1  UNL1        0.1092
     14 C           7.4932   40.1860    6.1929 C.ar    1  UNL1        0.2618
     15 C          11.5224   41.6101    6.2381 C.3     1  UNL1        0.0322
     16 O           6.3148   39.7432    6.1533 O.2     1  UNL1       -0.2671
     17 N           8.3374   39.9051    5.1640 N.ar    1  UNL1       -0.3247
     18 H           8.0062   39.3586    4.4151 H       1  UNL1        0.1686
     19 C          10.5185   38.4729    3.7879 C.3     1  UNL1        0.0066
     20 C          10.4778   39.9799    3.9625 C.3     1  UNL1        0.0433
     21 C           2.5464   41.7562   12.5426 C.3     1  UNL1        0.0592
     22 C           1.2194   42.5046   12.4394 C.3     1  UNL1        0.0334
     23 C           0.5861   42.8395   13.7611 C.ar    1  UNL1       -0.0188
     24 C           0.7293   44.0974   14.3685 C.ar    1  UNL1        0.0326
     25 C           0.1173   44.3703   15.6022 C.ar    1  UNL1        0.1384
     26 C          -0.6457   43.3770   16.2234 C.ar    1  UNL1        0.0369
     27 C          -0.7972   42.1247   15.6220 C.ar    1  UNL1        0.0028
     28 C          -0.1835   41.8588   14.3950 C.ar    1  UNL1       -0.0041
     29 C           0.6732   45.7499   17.5780 C.3     1  UNL1        0.2525
     30 O           0.2514   45.6126   16.2278 O.3     1  UNL1       -0.4714
@<TRIPOS>BOND
     1    19    20    1
     2    20    10    1
     3    11    12   ar
     4    13    14   ar
     5    13     6    1
     6    14    17   ar
     7     6     8   am
     8     1     5   ar
     9     2     5   ar
    10    21     2    1
    11    21    22    1
    12    22    23    1
    13    24    25   ar
    14    25    30    1
    15    26    27   ar
    16    28    23   ar
    17    29    30    1
    18    15    11    1
    19    17    10   ar
    20     8     1    1
    21     3     4   ar
    22    10    11   ar
    23    12    13   ar
    24    14    16    2
    25     6     7    2
    26     1     3   ar
    27     2     4   ar
    28    23    24   ar
    29    25    26   ar
    30    27    28   ar
    31    17    18    1
    32     8     9    1
@<TRIPOS>MOLECULE
MolPort-008-290-763 19521490 MCULE-5617834621 PubChem-46972310 ZINC000019521490
 30 32 0 0 0
SMALL
GASTEIGER

@<TRIPOS>ATOM
      1 C          10.1273   41.3264    6.0877 C.ar    1  UNL1        0.1880
      2 C           7.8489   40.6055    6.2894 C.ar    1  UNL1        0.1127
      3 N           9.6903   40.6349    5.0134 N.ar    1  UNL1       -0.1256
      4 N           8.4242   40.2364    5.1244 N.ar    1  UNL1       -0.1440
      5 S           8.9177   41.4762    7.2570 S.2     1  UNL1       -0.0347
      6 C          12.3845   41.6634    7.2512 C.2     1  UNL1        0.2556
      7 O          12.0558   40.9819    8.2593 O.2     1  UNL1       -0.2696
      8 N          11.4586   41.8493    6.1706 N.am    1  UNL1       -0.2591
      9 H          11.7696   42.3908    5.4095 H       1  UNL1        0.1571
     10 C          16.2424   43.4924    6.9715 C.ar    1  UNL1        0.0321
     11 C          15.1364   44.0774    6.3315 C.ar    1  UNL1       -0.0100
     12 C          13.8904   43.4620    6.4371 C.ar    1  UNL1        0.0061
     13 C          13.7305   42.2806    7.1709 C.ar    1  UNL1        0.1092
     14 C          14.8667   41.7335    7.8065 C.ar    1  UNL1        0.2618
     15 C          15.2510   45.3447    5.5534 C.3     1  UNL1        0.0322
     16 O          14.7857   40.6759    8.4856 O.2     1  UNL1       -0.2671
     17 N          16.0731   42.3511    7.6906 N.ar    1  UNL1       -0.3247
     18 H          16.8528   41.9569    8.1444 H       1  UNL1        0.1686
     19 C          18.4492   43.6435    8.0861 C.3     1  UNL1        0.0066
     20 C          17.6055   44.1050    6.9120 C.3     1  UNL1        0.0433
     21 C           6.4312   40.3041    6.6399 C.3     1  UNL1        0.0592
     22 C           5.7540   41.5261    7.2562 C.3     1  UNL1        0.0334
     23 C           5.7825   41.5652    8.7588 C.ar    1  UNL1       -0.0188
     24 C           4.6391   41.8362    9.5276 C.ar    1  UNL1        0.0326
     25 C           4.7083   41.8590   10.9296 C.ar    1  UNL1        0.1384
     26 C           5.9298   41.6026   11.5598 C.ar    1  UNL1        0.0369
     27 C           7.0704   41.3267   10.8012 C.ar    1  UNL1        0.0028
     28 C           6.9952   41.3077    9.4059 C.ar    1  UNL1       -0.0041
     29 C           2.2570   41.9325   11.2491 C.3     1  UNL1        0.2525
     30 O           3.5849   42.1324   11.7144 O.3     1  UNL1       -0.4714
@<TRIPOS>BOND
     1    19    20    1
     2    20    10    1
     3    11    12   ar
     4    13    14   ar
     5    13     6    1
     6    14    17   ar
     7     6     8   am
     8     1     5   ar
     9     2     5   ar
    10    21     2    1
    11    21    22    1
    12    22    23    1
    13    24    25   ar
    14    25    30    1
    15    26    27   ar
    16    28    23   ar
    17    29    30    1
    18    15    11    1
    19    17    10   ar
    20     8     1    1
    21     3     4   ar
    22    10    11   ar
    23    12    13   ar
    24    14    16    2
    25     6     7    2
    26     1     3   ar
    27     2     4   ar
    28    23    24   ar
    29    25    26   ar
    30    27    28   ar
    31    17    18    1
    32     8     9    1
@<TRIPOS>MOLECULE
MolPort-008-290-763 19521490 MCULE-5617834621 PubChem-46972310 ZINC000019521490
 30 32 0 0 0
SMALL
GASTEIGER

@<TRIPOS>ATOM
      1 C          10.2509   42.5537    9.9404 C.ar    1  UNL1        0.1880
      2 C           8.0373   41.9651   10.6513 C.ar    1  UNL1        0.1127
      3 N           9.6422   43.5285   10.6493 N.ar    1  UNL1       -0.1256
      4 N           8.4137   43.2008   11.0460 N.ar    1  UNL1       -0.1440
      5 S           9.2543   41.2003    9.7735 S.2     1  UNL1       -0.0347
      6 C          12.1410   42.0028    8.3014 C.2     1  UNL1        0.2556
      7 O          11.4501   41.1629    7.6643 O.2     1  UNL1       -0.2696
      8 N          11.5787   42.7002    9.4227 N.am    1  UNL1       -0.2591
      9 H          12.1644   43.3443    9.8823 H       1  UNL1        0.1571
     10 C          16.1581   42.8486    7.0955 C.ar    1  UNL1        0.0321
     11 C          15.0949   43.6214    6.5982 C.ar    1  UNL1       -0.0100
     12 C          13.7953   43.3255    7.0057 C.ar    1  UNL1        0.0061
     13 C          13.5416   42.2790    7.9002 C.ar    1  UNL1        0.1092
     14 C          14.6409   41.5356    8.3829 C.ar    1  UNL1        0.2618
     15 C          15.3144   44.7581    5.6578 C.3     1  UNL1        0.0322
     16 O          14.4777   40.5860    9.1941 O.2     1  UNL1       -0.2671
     17 N          15.9010   41.8419    7.9724 N.ar    1  UNL1       -0.3247
     18 H          16.6549   41.3150    8.3232 H       1  UNL1        0.1686
     19 C          18.2458   44.0176    7.7362 C.3     1  UNL1        0.0066
     20 C          17.5784   43.1181    6.7121 C.3     1  UNL1        0.0433
     21 C           6.7197   41.3567   10.9935 C.3     1  UNL1        0.0592
     22 C           5.6100   41.9432   10.1238 C.3     1  UNL1        0.0334
     23 C           6.0336   42.2998    8.7262 C.ar    1  UNL1       -0.0188
     24 C           6.4403   41.3335    7.7921 C.ar    1  UNL1        0.0326
     25 C           6.8242   41.7090    6.4949 C.ar    1  UNL1        0.1384
     26 C           6.7933   43.0596    6.1349 C.ar    1  UNL1        0.0369
     27 C           6.3843   44.0261    7.0576 C.ar    1  UNL1        0.0028
     28 C           6.0055   43.6459    8.3479 C.ar    1  UNL1       -0.0041
     29 C           8.1173   39.6952    5.8709 C.3     1  UNL1        0.2525
     30 O           7.2383   40.7653    5.5511 O.3     1  UNL1       -0.4714
@<TRIPOS>BOND
     1    19    20    1
     2    20    10    1
     3    11    12   ar
     4    13    14   ar
     5    13     6    1
     6    14    17   ar
     7     6     8   am
     8     1     5   ar
     9     2     5   ar
    10    21     2    1
    11    21    22    1
    12    22    23    1
    13    24    25   ar
    14    25    30    1
    15    26    27   ar
    16    28    23   ar
    17    29    30    1
    18    15    11    1
    19    17    10   ar
    20     8     1    1
    21     3     4   ar
    22    10    11   ar
    23    12    13   ar
    24    14    16    2
    25     6     7    2
    26     1     3   ar
    27     2     4   ar
    28    23    24   ar
    29    25    26   ar
    30    27    28   ar
    31    17    18    1
    32     8     9    1
@<TRIPOS>MOLECULE
MolPort-008-290-763 19521490 MCULE-5617834621 PubChem-46972310 ZINC000019521490
 30 32 0 0 0
SMALL
GASTEIGER

@<TRIPOS>ATOM
      1 C           9.0019   41.4365    7.1381 C.ar    1  UNL1        0.1880
      2 C          11.1801   41.5913    6.1464 C.ar    1  UNL1        0.1127
      3 N           8.9734   41.4421    5.7881 N.ar    1  UNL1       -0.1256
      4 N          10.1833   41.5259    5.2373 N.ar    1  UNL1       -0.1440
      5 S          10.5840   41.5378    7.7208 S.2     1  UNL1       -0.0347
      6 C           7.6792   41.6770    9.3187 C.2     1  UNL1        0.2556
      7 O           8.6762   42.0898    9.9701 O.2     1  UNL1       -0.2696
      8 N           7.8097   41.3488    7.9276 N.am    1  UNL1       -0.2591
      9 H           6.9980   41.0313    7.4698 H       1  UNL1        0.1571
     10 C           3.8451   41.2435   11.1674 C.ar    1  UNL1        0.0321
     11 C           3.9588   41.2258    9.7668 C.ar    1  UNL1       -0.0100
     12 C           5.2188   41.3697    9.1887 C.ar    1  UNL1        0.0061
     13 C           6.3616   41.5256    9.9820 C.ar    1  UNL1        0.1092
     14 C           6.2021   41.5266   11.3851 C.ar    1  UNL1        0.2618
     15 C           2.7745   41.0443    8.8785 C.3     1  UNL1        0.0322
     16 O           7.1927   41.6571   12.1519 O.2     1  UNL1       -0.2671
     17 N           4.9632   41.3843   11.9280 N.ar    1  UNL1       -0.3247
     18 H           4.8726   41.3832   12.9083 H       1  UNL1        0.1686
     19 C           2.0246   42.4184   12.3676 C.3     1  UNL1        0.0066
     20 C           2.5273   41.0811   11.8558 C.3     1  UNL1        0.0433
     21 C          12.6242   41.6621    5.7818 C.3     1  UNL1        0.0592
     22 C          13.2701   42.9154    6.3681 C.3     1  UNL1        0.0334
     23 C          14.5496   42.6672    7.1173 C.ar    1  UNL1       -0.0188
     24 C          14.7189   41.5701    7.9772 C.ar    1  UNL1        0.0326
     25 C          15.9325   41.3726    8.6549 C.ar    1  UNL1        0.1384
     26 C          16.9803   42.2780    8.4624 C.ar    1  UNL1        0.0369
     27 C          16.8207   43.3689    7.6038 C.ar    1  UNL1        0.0028
     28 C          15.6094   43.5610    6.9339 C.ar    1  UNL1       -0.0041
     29 C          17.3864   39.9711   10.0827 C.3     1  UNL1        0.2525
     30 O          16.1212   40.2915    9.5201 O.3     1  UNL1       -0.4714
@<TRIPOS>BOND
     1    19    20    1
     2    20    10    1
     3    11    12   ar
     4    13    14   ar
     5    13     6    1
     6    14    17   ar
     7     6     8   am
     8     1     5   ar
     9     2     5   ar
    10    21     2    1
    11    21    22    1
    12    22    23    1
    13    24    25   ar
    14    25    30    1
    15    26    27   ar
    16    28    23   ar
    17    29    30    1
    18    15    11    1
    19    17    10   ar
    20     8     1    1
    21     3     4   ar
    22    10    11   ar
    23    12    13   ar
    24    14    16    2
    25     6     7    2
    26     1     3   ar
    27     2     4   ar
    28    23    24   ar
    29    25    26   ar
    30    27    28   ar
    31    17    18    1
    32     8     9    1
@<TRIPOS>MOLECULE
MolPort-008-290-763 19521490 MCULE-5617834621 PubChem-46972310 ZINC000019521490
 30 32 0 0 0
SMALL
GASTEIGER

@<TRIPOS>ATOM
      1 C          10.5655   40.2482    6.7402 C.ar    1  UNL1        0.1880
      2 C           8.2964   39.5027    6.5234 C.ar    1  UNL1        0.1127
      3 N          10.2972   39.1407    7.4645 N.ar    1  UNL1       -0.1256
      4 N           9.0376   38.7253    7.3424 N.ar    1  UNL1       -0.1440
      5 S           9.2034   40.7727    5.8901 S.2     1  UNL1       -0.0347
      6 C          12.4415   41.6576    7.7683 C.2     1  UNL1        0.2556
      7 O          11.7972   41.8852    8.8275 O.2     1  UNL1       -0.2696
      8 N          11.8620   40.8578    6.7270 N.am    1  UNL1       -0.2591
      9 H          12.4107   40.7134    5.9225 H       1  UNL1        0.1571
     10 C          16.3458   43.3117    7.1968 C.ar    1  UNL1        0.0321
     11 C          15.2223   43.9473    6.6412 C.ar    1  UNL1       -0.0100
     12 C          13.9613   43.3883    6.8410 C.ar    1  UNL1        0.0061
     13 C          13.8040   42.2138    7.5862 C.ar    1  UNL1        0.1092
     14 C          14.9590   41.6147    8.1351 C.ar    1  UNL1        0.2618
     15 C          15.3350   45.2098    5.8551 C.3     1  UNL1        0.0322
     16 O          14.8817   40.5604    8.8197 O.2     1  UNL1       -0.2671
     17 N          16.1798   42.1776    7.9280 N.ar    1  UNL1       -0.3247
     18 H          16.9729   41.7477    8.3224 H       1  UNL1        0.1686
     19 C          18.1943   43.7145    5.5980 C.3     1  UNL1        0.0066
     20 C          17.7268   43.8624    7.0342 C.3     1  UNL1        0.0433
     21 C           6.8658   39.2313    6.2019 C.3     1  UNL1        0.0592
     22 C           5.9844   40.4061    6.6197 C.3     1  UNL1        0.0334
     23 C           6.6449   41.3821    7.5531 C.ar    1  UNL1       -0.0188
     24 C           7.2139   40.9893    8.7753 C.ar    1  UNL1        0.0326
     25 C           7.8252   41.9329    9.6162 C.ar    1  UNL1        0.1384
     26 C           7.8694   43.2741    9.2236 C.ar    1  UNL1        0.0369
     27 C           7.3101   43.6711    8.0061 C.ar    1  UNL1        0.0028
     28 C           6.7011   42.7273    7.1747 C.ar    1  UNL1       -0.0041
     29 C           7.7899   41.8770   12.0884 C.3     1  UNL1        0.2525
     30 O           8.3923   41.5657   10.8394 O.3     1  UNL1       -0.4714
@<TRIPOS>BOND
     1    19    20    1
     2    20    10    1
     3    11    12   ar
     4    13    14   ar
     5    13     6    1
     6    14    17   ar
     7     6     8   am
     8     1     5   ar
     9     2     5   ar
    10    21     2    1
    11    21    22    1
    12    22    23    1
    13    24    25   ar
    14    25    30    1
    15    26    27   ar
    16    28    23   ar
    17    29    30    1
    18    15    11    1
    19    17    10   ar
    20     8     1    1
    21     3     4   ar
    22    10    11   ar
    23    12    13   ar
    24    14    16    2
    25     6     7    2
    26     1     3   ar
    27     2     4   ar
    28    23    24   ar
    29    25    26   ar
    30    27    28   ar
    31    17    18    1
    32     8     9    1
@<TRIPOS>MOLECULE
MolPort-008-290-763 19521490 MCULE-5617834621 PubChem-46972310 ZINC000019521490
 30 32 0 0 0
SMALL
GASTEIGER

@<TRIPOS>ATOM
      1 C           9.8836   41.6109    9.2065 C.ar    1  UNL1        0.1880
      2 C          12.1181   41.1303    8.4798 C.ar    1  UNL1        0.1127
      3 N          10.6898   42.6941    9.2109 N.ar    1  UNL1       -0.1256
      4 N          11.9302   42.4277    8.8052 N.ar    1  UNL1       -0.1440
      5 S          10.7067   40.2332    8.6800 S.2     1  UNL1       -0.0347
      6 C           7.4184   42.1936    8.8250 C.2     1  UNL1        0.2556
      7 O           7.6230   42.6461    7.6664 O.2     1  UNL1       -0.2696
      8 N           8.5088   41.6794    9.6036 N.am    1  UNL1       -0.2591
      9 H           8.2900   41.3393   10.5013 H       1  UNL1        0.1571
     10 C           3.4803   42.1096   10.4956 C.ar    1  UNL1        0.0321
     11 C           4.3671   41.0441   10.7261 C.ar    1  UNL1       -0.0100
     12 C           5.6442   41.0948   10.1704 C.ar    1  UNL1        0.0061
     13 C           6.0499   42.1882    9.3960 C.ar    1  UNL1        0.1092
     14 C           5.1300   43.2415    9.1992 C.ar    1  UNL1        0.2618
     15 C           3.9894   39.8656   11.5587 C.3     1  UNL1        0.0322
     16 O           5.4379   44.2546    8.5172 O.2     1  UNL1       -0.2671
     17 N           3.8889   43.1714    9.7513 N.ar    1  UNL1       -0.3247
     18 H           3.2631   43.9175    9.6066 H       1  UNL1        0.1686
     19 C           2.1382   42.5331   12.5340 C.3     1  UNL1        0.0066
     20 C           2.1002   42.1285   11.0717 C.3     1  UNL1        0.0433
     21 C          13.4104   40.5873    7.9714 C.3     1  UNL1        0.0592
     22 C          14.5439   40.8794    8.9521 C.3     1  UNL1        0.0334
     23 C          15.2708   39.6606    9.4482 C.ar    1  UNL1       -0.0188
     24 C          14.7650   38.3613    9.2817 C.ar    1  UNL1        0.0326
     25 C          15.4784   37.2493    9.7566 C.ar    1  UNL1        0.1384
     26 C          16.7066   37.4446   10.3954 C.ar    1  UNL1        0.0369
     27 C          17.2187   38.7344   10.5595 C.ar    1  UNL1        0.0028
     28 C          16.5026   39.8372   10.0865 C.ar    1  UNL1       -0.0041
     29 C          13.6449   35.5953    9.8949 C.3     1  UNL1        0.2525
     30 O          14.9913   35.9480    9.6076 O.3     1  UNL1       -0.4714
@<TRIPOS>BOND
     1    19    20    1
     2    20    10    1
     3    11    12   ar
     4    13    14   ar
     5    13     6    1
     6    14    17   ar
     7     6     8   am
     8     1     5   ar
     9     2     5   ar
    10    21     2    1
    11    21    22    1
    12    22    23    1
    13    24    25   ar
    14    25    30    1
    15    26    27   ar
    16    28    23   ar
    17    29    30    1
    18    15    11    1
    19    17    10   ar
    20     8     1    1
    21     3     4   ar
    22    10    11   ar
    23    12    13   ar
    24    14    16    2
    25     6     7    2
    26     1     3   ar
    27     2     4   ar
    28    23    24   ar
    29    25    26   ar
    30    27    28   ar
    31    17    18    1
    32     8     9    1
