@<TRIPOS>MOLECULE
MolPort-008-338-731 36353994 CSSS00160717244 LN00877548 MCULE-5276027582 PubChem-45491328 ZINC000036353994 ZINC36353994
 31 33 0 0 0
SMALL
GASTEIGER

@<TRIPOS>ATOM
      1 C           6.8979   41.6192   11.4623 C.ar    1  UNL1        0.1535
      2 C           7.8166   41.1106   12.3960 C.ar    1  UNL1        0.0395
      3 C           9.1798   41.0698   12.1035 C.ar    1  UNL1        0.0179
      4 C           9.6513   41.5413   10.8734 C.ar    1  UNL1        0.0521
      5 C           8.7407   42.0385    9.9378 C.ar    1  UNL1        0.0339
      6 C           7.3643   42.0830   10.2113 C.ar    1  UNL1        0.1035
      7 C           5.1967   41.9300    8.9239 C.3     1  UNL1        0.1156
      8 C           4.0188   42.9109    8.7886 C.3     1  UNL1        0.0252
      9 C           4.3672   44.3345    8.3202 C.3     1  UNL1        0.0292
     10 C           5.4827   44.3702    7.2863 C.3     1  UNL1        0.1727
     11 O           7.9183   43.2302    7.0815 O.2     1  UNL1       -0.1543
     12 O           7.6104   44.9638    8.8084 O.2     1  UNL1       -0.1543
     13 N           6.4591   42.6028    9.2181 N.pl3   1  UNL1       -0.1914
     14 S           6.9654   43.8135    8.0858 S.O2    1  UNL1        0.0570
     15 C          11.7961   40.3507   10.1357 C.2     1  UNL1        0.3032
     16 O          11.2891   39.1982   10.1934 O.2     1  UNL1       -0.2648
     17 N          11.0425   41.5059   10.5313 N.am    1  UNL1       -0.2766
     18 H          11.5302   42.3602   10.5718 H       1  UNL1        0.1553
     19 C          13.1811   40.5108    9.6797 C.2     1  UNL1        0.3001
     20 O          14.1253   40.0260   10.3608 O.2     1  UNL1       -0.2651
     21 N          13.4561   41.2140    8.4669 N.am    1  UNL1       -0.2931
     22 H          12.7028   41.5348    7.9201 H       1  UNL1        0.1502
     23 C          14.8148   41.4708    8.0150 C.3     1  UNL1        0.1182
     24 C          14.8504   42.7108    7.1927 C.ar    1  UNL1        0.0166
     25 C          15.9954   43.5125    7.1614 C.ar    1  UNL1        0.0005
     26 C          16.0114   44.6696    6.3801 C.ar    1  UNL1        0.0204
     27 C          14.8778   45.0067    5.6362 C.ar    1  UNL1        0.0989
     28 C          13.7375   43.0814    6.4332 C.ar    1  UNL1        0.0962
     29 N          13.7736   44.2124    5.6774 N.ar    1  UNL1       -0.2426
     30 C           4.6703   40.5623   11.7142 C.3     1  UNL1        0.2525
     31 O           5.5342   41.6896   11.7717 O.3     1  UNL1       -0.4701
@<TRIPOS>BOND
     1    30    31    1
     2     1    31    1
     3     2     3   ar
     4     4    17    1
     5     4     5   ar
     6    15    19    1
     7    19    21   am
     8    23    21    1
     9    23    24    1
    10    25    26   ar
    11    27    29   ar
    12    28    24   ar
    13     6    13    1
    14     6     1   ar
    15     7    13    1
    16     7     8    1
    17     8     9    1
    18     9    10    1
    19    10    14    1
    20    17    15   am
    21    14    13    1
    22     1     2   ar
    23     3     4   ar
    24    15    16    2
    25    19    20    2
    26    24    25   ar
    27    26    27   ar
    28    28    29   ar
    29     5     6   ar
    30    14    11    2
    31    14    12    2
    32    17    18    1
    33    21    22    1
@<TRIPOS>MOLECULE
MolPort-008-338-731 36353994 CSSS00160717244 LN00877548 MCULE-5276027582 PubChem-45491328 ZINC000036353994 ZINC36353994
 31 33 0 0 0
SMALL
GASTEIGER

@<TRIPOS>ATOM
      1 C           6.4633   41.4477   11.4226 C.ar    1  UNL1        0.1535
      2 C           7.0546   40.7119   12.4635 C.ar    1  UNL1        0.0395
      3 C           8.4254   40.4542   12.4632 C.ar    1  UNL1        0.0179
      4 C           9.2323   40.9315   11.4246 C.ar    1  UNL1        0.0521
      5 C           8.6474   41.6548   10.3822 C.ar    1  UNL1        0.0339
      6 C           7.2688   41.9199   10.3616 C.ar    1  UNL1        0.1035
      7 C           5.5043   42.2070    8.5775 C.3     1  UNL1        0.1156
      8 C           4.5011   43.3423    8.3078 C.3     1  UNL1        0.0252
      9 C           5.0936   44.7543    8.1563 C.3     1  UNL1        0.0292
     10 C           6.4369   44.7682    7.4422 C.3     1  UNL1        0.1727
     11 O           8.7217   43.3531    7.6682 O.2     1  UNL1       -0.1543
     12 O           8.1446   44.8917    9.5073 O.2     1  UNL1       -0.1543
     13 N           6.7058   42.6691    9.2672 N.pl3   1  UNL1       -0.1914
     14 S           7.6016   43.9307    8.4860 S.O2    1  UNL1        0.0570
     15 C          11.3329   39.8437   10.4419 C.2     1  UNL1        0.3032
     16 O          10.6950   39.1298    9.6220 O.2     1  UNL1       -0.2648
     17 N          10.6422   40.6781   11.3828 N.am    1  UNL1       -0.2766
     18 H          11.1921   41.1212   12.0687 H       1  UNL1        0.1553
     19 C          12.7993   39.8038   10.4492 C.2     1  UNL1        0.3001
     20 O          13.4297   40.1204   11.4945 O.2     1  UNL1       -0.2651
     21 N          13.5080   39.4064    9.2741 N.am    1  UNL1       -0.2931
     22 H          12.9973   39.1078    8.4871 H       1  UNL1        0.1502
     23 C          14.9609   39.4295    9.2045 C.3     1  UNL1        0.1182
     24 C          15.4256   40.7643    8.7384 C.ar    1  UNL1        0.0166
     25 C          14.6147   41.5548    7.9185 C.ar    1  UNL1        0.0005
     26 C          15.0661   42.8065    7.4953 C.ar    1  UNL1        0.0204
     27 C          16.3260   43.2516    7.9035 C.ar    1  UNL1        0.0989
     28 C          16.6787   41.2460    9.1262 C.ar    1  UNL1        0.0962
     29 N          17.0998   42.4691    8.7039 N.ar    1  UNL1       -0.2426
     30 C           4.0949   40.7236   11.5178 C.3     1  UNL1        0.2525
     31 O           5.0927   41.7332   11.4425 O.3     1  UNL1       -0.4701
@<TRIPOS>BOND
     1    30    31    1
     2     1    31    1
     3     2     3   ar
     4     4    17    1
     5     4     5   ar
     6    15    19    1
     7    19    21   am
     8    23    21    1
     9    23    24    1
    10    25    26   ar
    11    27    29   ar
    12    28    24   ar
    13     6    13    1
    14     6     1   ar
    15     7    13    1
    16     7     8    1
    17     8     9    1
    18     9    10    1
    19    10    14    1
    20    17    15   am
    21    14    13    1
    22     1     2   ar
    23     3     4   ar
    24    15    16    2
    25    19    20    2
    26    24    25   ar
    27    26    27   ar
    28    28    29   ar
    29     5     6   ar
    30    14    11    2
    31    14    12    2
    32    17    18    1
    33    21    22    1
@<TRIPOS>MOLECULE
MolPort-008-338-731 36353994 CSSS00160717244 LN00877548 MCULE-5276027582 PubChem-45491328 ZINC000036353994 ZINC36353994
 31 33 0 0 0
SMALL
GASTEIGER

@<TRIPOS>ATOM
      1 C           6.9871   41.6868   11.0956 C.ar    1  UNL1        0.1535
      2 C           8.1443   41.2109   11.7350 C.ar    1  UNL1        0.0395
      3 C           9.3684   41.1881   11.0666 C.ar    1  UNL1        0.0179
      4 C           9.4599   41.6453    9.7474 C.ar    1  UNL1        0.0521
      5 C           8.3101   42.1099    9.1040 C.ar    1  UNL1        0.0339
      6 C           7.0679   42.1357    9.7578 C.ar    1  UNL1        0.1035
      7 C           4.7362   41.7714    8.8583 C.3     1  UNL1        0.1156
      8 C           3.4130   42.5107    9.1236 C.3     1  UNL1        0.0252
      9 C           3.4233   44.0319    8.8919 C.3     1  UNL1        0.0292
     10 C           4.2824   44.4531    7.7089 C.3     1  UNL1        0.1727
     11 O           6.7756   43.8619    6.8675 O.2     1  UNL1       -0.1543
     12 O           6.5526   45.1976    8.9287 O.2     1  UNL1       -0.1543
     13 N           5.9064   42.6220    9.0574 N.pl3   1  UNL1       -0.1914
     14 S           5.9675   44.0759    8.1158 S.O2    1  UNL1        0.0570
     15 C          11.8679   40.8665    9.3516 C.2     1  UNL1        0.3032
     16 O          11.9398   40.2269   10.4352 O.2     1  UNL1       -0.2648
     17 N          10.6965   41.6274    9.0234 N.am    1  UNL1       -0.2766
     18 H          10.7475   42.1943    8.2201 H       1  UNL1        0.1553
     19 C          13.0048   40.8511    8.4246 C.2     1  UNL1        0.3001
     20 O          13.7855   39.8609    8.4065 O.2     1  UNL1       -0.2651
     21 N          13.2235   41.9560    7.5458 N.am    1  UNL1       -0.2931
     22 H          12.5708   42.6930    7.5342 H       1  UNL1        0.1502
     23 C          14.3811   42.0258    6.6674 C.3     1  UNL1        0.1182
     24 C          15.5292   42.6397    7.3886 C.ar    1  UNL1        0.0166
     25 C          16.2490   41.9068    8.3371 C.ar    1  UNL1        0.0005
     26 C          17.3261   42.4985    8.9999 C.ar    1  UNL1        0.0204
     27 C          17.6702   43.8190    8.7000 C.ar    1  UNL1        0.0989
     28 C          15.9058   43.9574    7.1158 C.ar    1  UNL1        0.0962
     29 N          16.9593   44.5154    7.7719 N.ar    1  UNL1       -0.2426
     30 C           4.8499   40.6537   11.8081 C.3     1  UNL1        0.2525
     31 O           5.7668   41.7395   11.7799 O.3     1  UNL1       -0.4701
@<TRIPOS>BOND
     1    30    31    1
     2     1    31    1
     3     2     3   ar
     4     4    17    1
     5     4     5   ar
     6    15    19    1
     7    19    21   am
     8    23    21    1
     9    23    24    1
    10    25    26   ar
    11    27    29   ar
    12    28    24   ar
    13     6    13    1
    14     6     1   ar
    15     7    13    1
    16     7     8    1
    17     8     9    1
    18     9    10    1
    19    10    14    1
    20    17    15   am
    21    14    13    1
    22     1     2   ar
    23     3     4   ar
    24    15    16    2
    25    19    20    2
    26    24    25   ar
    27    26    27   ar
    28    28    29   ar
    29     5     6   ar
    30    14    11    2
    31    14    12    2
    32    17    18    1
    33    21    22    1
@<TRIPOS>MOLECULE
MolPort-008-338-731 36353994 CSSS00160717244 LN00877548 MCULE-5276027582 PubChem-45491328 ZINC000036353994 ZINC36353994
 31 33 0 0 0
SMALL
GASTEIGER

@<TRIPOS>ATOM
      1 C          15.0276   40.7635    8.6208 C.ar    1  UNL1        0.1535
      2 C          14.2018   41.7928    8.1381 C.ar    1  UNL1        0.0395
      3 C          12.8130   41.6686    8.1775 C.ar    1  UNL1        0.0179
      4 C          12.2231   40.5146    8.7047 C.ar    1  UNL1        0.0521
      5 C          13.0401   39.4842    9.1765 C.ar    1  UNL1        0.0339
      6 C          14.4399   39.5879    9.1405 C.ar    1  UNL1        0.1035
      7 C          15.1387   37.1621    9.0647 C.3     1  UNL1        0.1156
      8 C          16.5101   36.5017    8.8388 C.3     1  UNL1        0.0252
      9 C          17.6462   36.9522    9.7736 C.3     1  UNL1        0.0292
     10 C          17.1807   37.2239   11.1964 C.3     1  UNL1        0.1727
     11 O          15.1352   38.5960   12.2951 O.2     1  UNL1       -0.1543
     12 O          16.9090   39.8926   11.1749 O.2     1  UNL1       -0.1543
     13 N          15.2458   38.5015    9.6367 N.pl3   1  UNL1       -0.1914
     14 S          16.0970   38.6274   11.1413 S.O2    1  UNL1        0.0570
     15 C           9.8292   41.3561    9.0546 C.2     1  UNL1        0.3032
     16 O          10.1872   42.4973    9.4521 O.2     1  UNL1       -0.2648
     17 N          10.8010   40.3447    8.7523 N.am    1  UNL1       -0.2766
     18 H          10.4561   39.4433    8.5580 H       1  UNL1        0.1553
     19 C           8.4006   41.0509    8.9209 C.2     1  UNL1        0.3001
     20 O           8.0027   40.3128    7.9789 O.2     1  UNL1       -0.2651
     21 N           7.4655   41.5894    9.8572 N.am    1  UNL1       -0.2931
     22 H           7.8017   42.1155   10.6183 H       1  UNL1        0.1502
     23 C           6.0317   41.3843    9.7205 C.3     1  UNL1        0.1182
     24 C           5.4038   42.5846    9.1042 C.ar    1  UNL1        0.0166
     25 C           6.1368   43.4121    8.2482 C.ar    1  UNL1        0.0005
     26 C           5.5288   44.5312    7.6757 C.ar    1  UNL1        0.0204
     27 C           4.1899   44.8045    7.9670 C.ar    1  UNL1        0.0989
     28 C           4.0664   42.8913    9.3692 C.ar    1  UNL1        0.0962
     29 N           3.4921   43.9859    8.8004 N.ar    1  UNL1       -0.2426
     30 C          17.0679   42.1594    8.4435 C.3     1  UNL1        0.2525
     31 O          16.4205   40.9050    8.6105 O.3     1  UNL1       -0.4701
@<TRIPOS>BOND
     1    30    31    1
     2     1    31    1
     3     2     3   ar
     4     4    17    1
     5     4     5   ar
     6    15    19    1
     7    19    21   am
     8    23    21    1
     9    23    24    1
    10    25    26   ar
    11    27    29   ar
    12    28    24   ar
    13     6    13    1
    14     6     1   ar
    15     7    13    1
    16     7     8    1
    17     8     9    1
    18     9    10    1
    19    10    14    1
    20    17    15   am
    21    14    13    1
    22     1     2   ar
    23     3     4   ar
    24    15    16    2
    25    19    20    2
    26    24    25   ar
    27    26    27   ar
    28    28    29   ar
    29     5     6   ar
    30    14    11    2
    31    14    12    2
    32    17    18    1
    33    21    22    1
@<TRIPOS>MOLECULE
MolPort-008-338-731 36353994 CSSS00160717244 LN00877548 MCULE-5276027582 PubChem-45491328 ZINC000036353994 ZINC36353994
 31 33 0 0 0
SMALL
GASTEIGER

@<TRIPOS>ATOM
      1 C           7.3410   41.7005   10.7183 C.ar    1  UNL1        0.1535
      2 C           7.8958   41.1235   11.8731 C.ar    1  UNL1        0.0395
      3 C           9.2708   40.9103   11.9719 C.ar    1  UNL1        0.0179
      4 C          10.1180   41.2745   10.9197 C.ar    1  UNL1        0.0521
      5 C           9.5699   41.8391    9.7653 C.ar    1  UNL1        0.0339
      6 C           8.1881   42.0567    9.6445 C.ar    1  UNL1        0.1035
      7 C           8.0619   42.1402    7.1234 C.3     1  UNL1        0.1156
      8 C           6.8733   42.0010    6.1560 C.3     1  UNL1        0.0252
      9 C           5.6858   42.9502    6.3936 C.3     1  UNL1        0.0292
     10 C           6.1088   44.3379    6.8517 C.3     1  UNL1        0.1727
     11 O           7.8101   45.2844    8.7181 O.2     1  UNL1       -0.1543
     12 O           5.7616   44.1593    9.5057 O.2     1  UNL1       -0.1543
     13 N           7.6639   42.6410    8.4362 N.pl3   1  UNL1       -0.1914
     14 S           6.8409   44.1662    8.4585 S.O2    1  UNL1        0.0570
     15 C          12.2521   39.9393   10.4459 C.2     1  UNL1        0.3032
     16 O          11.6382   38.9421    9.9797 O.2     1  UNL1       -0.2648
     17 N          11.5339   41.0614   10.9786 N.am    1  UNL1       -0.2766
     18 H          12.0675   41.7548   11.4300 H       1  UNL1        0.1553
     19 C          13.7190   39.9430   10.4648 C.2     1  UNL1        0.3001
     20 O          14.3342   39.4819   11.4643 O.2     1  UNL1       -0.2651
     21 N          14.4453   40.4678    9.3520 N.am    1  UNL1       -0.2931
     22 H          13.9484   40.7699    8.5576 H       1  UNL1        0.1502
     23 C          15.8964   40.5696    9.3567 C.3     1  UNL1        0.1182
     24 C          16.3234   41.7718    8.5901 C.ar    1  UNL1        0.0166
     25 C          17.5847   42.3382    8.7973 C.ar    1  UNL1        0.0005
     26 C          17.9691   43.4632    8.0651 C.ar    1  UNL1        0.0204
     27 C          17.0832   44.0046    7.1302 C.ar    1  UNL1        0.0989
     28 C          15.4667   42.3420    7.6448 C.ar    1  UNL1        0.0962
     29 N          15.8607   43.4377    6.9406 N.ar    1  UNL1       -0.2426
     30 C           4.9982   41.1485   11.3092 C.3     1  UNL1        0.2525
     31 O           5.9646   41.9437   10.6354 O.3     1  UNL1       -0.4701
@<TRIPOS>BOND
     1    30    31    1
     2     1    31    1
     3     2     3   ar
     4     4    17    1
     5     4     5   ar
     6    15    19    1
     7    19    21   am
     8    23    21    1
     9    23    24    1
    10    25    26   ar
    11    27    29   ar
    12    28    24   ar
    13     6    13    1
    14     6     1   ar
    15     7    13    1
    16     7     8    1
    17     8     9    1
    18     9    10    1
    19    10    14    1
    20    17    15   am
    21    14    13    1
    22     1     2   ar
    23     3     4   ar
    24    15    16    2
    25    19    20    2
    26    24    25   ar
    27    26    27   ar
    28    28    29   ar
    29     5     6   ar
    30    14    11    2
    31    14    12    2
    32    17    18    1
    33    21    22    1
@<TRIPOS>MOLECULE
MolPort-008-338-731 36353994 CSSS00160717244 LN00877548 MCULE-5276027582 PubChem-45491328 ZINC000036353994 ZINC36353994
 31 33 0 0 0
SMALL
GASTEIGER

@<TRIPOS>ATOM
      1 C          13.0157   36.8059   10.0096 C.ar    1  UNL1        0.1535
      2 C          11.6360   36.5397   10.0036 C.ar    1  UNL1        0.0395
      3 C          10.7115   37.5780    9.8904 C.ar    1  UNL1        0.0179
      4 C          11.1488   38.9021    9.7760 C.ar    1  UNL1        0.0521
      5 C          12.5193   39.1727    9.7916 C.ar    1  UNL1        0.0339
      6 C          13.4654   38.1421    9.9103 C.ar    1  UNL1        0.1035
      7 C          15.4182   39.4758    9.0233 C.3     1  UNL1        0.1156
      8 C          16.4138   40.4168    9.7242 C.3     1  UNL1        0.0252
      9 C          17.1708   39.8330   10.9299 C.3     1  UNL1        0.0292
     10 C          17.5348   38.3659   10.7571 C.3     1  UNL1        0.1727
     11 O          16.2017   36.1600    9.9632 O.2     1  UNL1       -0.1543
     12 O          15.5717   37.1576   12.1290 O.2     1  UNL1       -0.1543
     13 N          14.8696   38.4648    9.9231 N.pl3   1  UNL1       -0.1914
     14 S          16.0197   37.4437   10.7223 S.O2    1  UNL1        0.0570
     15 C           9.9958   41.0148   10.6527 C.2     1  UNL1        0.3032
     16 O          10.5143   40.9368   11.7988 O.2     1  UNL1       -0.2648
     17 N          10.2302   39.9968    9.6690 N.am    1  UNL1       -0.2766
     18 H           9.7074   40.0565    8.8369 H       1  UNL1        0.1553
     19 C           9.1237   42.1488   10.3278 C.2     1  UNL1        0.3001
     20 O           9.4267   43.3066   10.7254 O.2     1  UNL1       -0.2651
     21 N           7.9357   41.9386    9.5626 N.am    1  UNL1       -0.2931
     22 H           7.7467   41.0381    9.2127 H       1  UNL1        0.1502
     23 C           6.9967   43.0144    9.2846 C.3     1  UNL1        0.1182
     24 C           5.6005   42.5166    9.4180 C.ar    1  UNL1        0.0166
     25 C           5.3478   41.2097    9.8456 C.ar    1  UNL1        0.0005
     26 C           4.0309   40.7623    9.9693 C.ar    1  UNL1        0.0204
     27 C           2.9824   41.6341    9.6652 C.ar    1  UNL1        0.0989
     28 C           4.5242   43.3583    9.1251 C.ar    1  UNL1        0.0962
     29 N           3.2482   42.9035    9.2531 N.ar    1  UNL1       -0.2426
     30 C          13.7158   34.4819    9.5082 C.3     1  UNL1        0.2525
     31 O          13.9419   35.7590   10.0899 O.3     1  UNL1       -0.4701
@<TRIPOS>BOND
     1    30    31    1
     2     1    31    1
     3     2     3   ar
     4     4    17    1
     5     4     5   ar
     6    15    19    1
     7    19    21   am
     8    23    21    1
     9    23    24    1
    10    25    26   ar
    11    27    29   ar
    12    28    24   ar
    13     6    13    1
    14     6     1   ar
    15     7    13    1
    16     7     8    1
    17     8     9    1
    18     9    10    1
    19    10    14    1
    20    17    15   am
    21    14    13    1
    22     1     2   ar
    23     3     4   ar
    24    15    16    2
    25    19    20    2
    26    24    25   ar
    27    26    27   ar
    28    28    29   ar
    29     5     6   ar
    30    14    11    2
    31    14    12    2
    32    17    18    1
    33    21    22    1
@<TRIPOS>MOLECULE
MolPort-008-338-731 36353994 CSSS00160717244 LN00877548 MCULE-5276027582 PubChem-45491328 ZINC000036353994 ZINC36353994
 31 33 0 0 0
SMALL
GASTEIGER

@<TRIPOS>ATOM
      1 C           6.7924   41.6375   11.3804 C.ar    1  UNL1        0.1535
      2 C           7.8023   41.1097   12.2026 C.ar    1  UNL1        0.0395
      3 C           9.1287   41.0824   11.7719 C.ar    1  UNL1        0.0179
      4 C           9.4717   41.5867   10.5127 C.ar    1  UNL1        0.0521
      5 C           8.4696   42.1032    9.6875 C.ar    1  UNL1        0.0339
      6 C           7.1281   42.1346   10.1006 C.ar    1  UNL1        0.1035
      7 C           4.9234   41.9144    8.8883 C.3     1  UNL1        0.1156
      8 C           3.6478   42.7743    8.9258 C.3     1  UNL1        0.0252
      9 C           3.8274   44.2740    8.6318 C.3     1  UNL1        0.0292
     10 C           4.8792   44.5557    7.5692 C.3     1  UNL1        0.1727
     11 O           7.4028   43.7140    7.1259 O.2     1  UNL1       -0.1543
     12 O           7.0123   45.1772    9.0724 O.2     1  UNL1       -0.1543
     13 N           6.1255   42.6752    9.2182 N.pl3   1  UNL1       -0.1914
     14 S           6.4492   44.0639    8.2328 S.O2    1  UNL1        0.0570
     15 C          11.5742   40.4062    9.6483 C.2     1  UNL1        0.3032
     16 O          11.1209   39.2473    9.8481 O.2     1  UNL1       -0.2648
     17 N          10.8209   41.5662   10.0301 N.am    1  UNL1       -0.2766
     18 H          11.2767   42.4354    9.9528 H       1  UNL1        0.1553
     19 C          12.8981   40.5710    9.0383 C.2     1  UNL1        0.3001
     20 O          12.9926   40.8996    7.8244 O.2     1  UNL1       -0.2651
     21 N          14.0750   40.3597    9.8202 N.am    1  UNL1       -0.2931
     22 H          13.9809   40.1604   10.7797 H       1  UNL1        0.1502
     23 C          15.4082   40.4299    9.2422 C.3     1  UNL1        0.1182
     24 C          16.2800   39.3873    9.8490 C.ar    1  UNL1        0.0166
     25 C          17.5754   39.6995   10.2723 C.ar    1  UNL1        0.0005
     26 C          18.3765   38.7090   10.8436 C.ar    1  UNL1        0.0204
     27 C          17.8660   37.4163   10.9865 C.ar    1  UNL1        0.0989
     28 C          15.8056   38.0829   10.0107 C.ar    1  UNL1        0.0962
     29 N          16.6018   37.1322   10.5709 N.ar    1  UNL1       -0.2426
     30 C           4.5838   40.5820   11.7685 C.3     1  UNL1        0.2525
     31 O           5.4671   41.6940   11.8285 O.3     1  UNL1       -0.4701
@<TRIPOS>BOND
     1    30    31    1
     2     1    31    1
     3     2     3   ar
     4     4    17    1
     5     4     5   ar
     6    15    19    1
     7    19    21   am
     8    23    21    1
     9    23    24    1
    10    25    26   ar
    11    27    29   ar
    12    28    24   ar
    13     6    13    1
    14     6     1   ar
    15     7    13    1
    16     7     8    1
    17     8     9    1
    18     9    10    1
    19    10    14    1
    20    17    15   am
    21    14    13    1
    22     1     2   ar
    23     3     4   ar
    24    15    16    2
    25    19    20    2
    26    24    25   ar
    27    26    27   ar
    28    28    29   ar
    29     5     6   ar
    30    14    11    2
    31    14    12    2
    32    17    18    1
    33    21    22    1
@<TRIPOS>MOLECULE
MolPort-008-338-731 36353994 CSSS00160717244 LN00877548 MCULE-5276027582 PubChem-45491328 ZINC000036353994 ZINC36353994
 31 33 0 0 0
SMALL
GASTEIGER

@<TRIPOS>ATOM
      1 C           7.1671   41.6385   11.2657 C.ar    1  UNL1        0.1535
      2 C           7.9022   41.2107   12.3842 C.ar    1  UNL1        0.0395
      3 C           9.2859   41.0516   12.3080 C.ar    1  UNL1        0.0179
      4 C           9.9619   41.3217   11.1132 C.ar    1  UNL1        0.0521
      5 C           9.2341   41.7376    9.9955 C.ar    1  UNL1        0.0339
      6 C           7.8404   41.8985   10.0505 C.ar    1  UNL1        0.1035
      7 C           6.0749   43.3368    8.9582 C.3     1  UNL1        0.1156
      8 C           6.1633   44.3824    7.8327 C.3     1  UNL1        0.0252
      9 C           6.8058   43.9138    6.5154 C.3     1  UNL1        0.0292
     10 C           6.4689   42.4727    6.1625 C.3     1  UNL1        0.1727
     11 O           6.4738   40.1371    7.5110 O.2     1  UNL1       -0.1543
     12 O           8.6553   41.1803    7.0259 O.2     1  UNL1       -0.1543
     13 N           7.1279   42.3285    8.8742 N.pl3   1  UNL1       -0.1914
     14 S           7.2192   41.4361    7.3912 S.O2    1  UNL1        0.0570
     15 C          12.0691   40.0015   10.4982 C.2     1  UNL1        0.3032
     16 O          11.4435   38.9365   10.2472 O.2     1  UNL1       -0.2648
     17 N          11.3805   41.1595   10.9919 N.am    1  UNL1       -0.2766
     18 H          11.9389   41.9190   11.2759 H       1  UNL1        0.1553
     19 C          13.5223   40.0508   10.3044 C.2     1  UNL1        0.3001
     20 O          14.2873   39.5383   11.1661 O.2     1  UNL1       -0.2651
     21 N          14.0661   40.6778    9.1416 N.am    1  UNL1       -0.2931
     22 H          13.4516   41.0206    8.4530 H       1  UNL1        0.1502
     23 C          15.4997   40.8253    8.9436 C.3     1  UNL1        0.1182
     24 C          15.7776   42.0425    8.1333 C.ar    1  UNL1        0.0166
     25 C          14.8668   42.4779    7.1660 C.ar    1  UNL1        0.0005
     26 C          15.1428   43.6248    6.4191 C.ar    1  UNL1        0.0204
     27 C          16.3295   44.3236    6.6548 C.ar    1  UNL1        0.0989
     28 C          16.9526   42.7700    8.3400 C.ar    1  UNL1        0.0962
     29 N          17.2025   43.8859    7.6024 N.ar    1  UNL1       -0.2426
     30 C           4.8551   40.7527   11.3765 C.3     1  UNL1        0.2525
     31 O           5.7829   41.8293   11.3546 O.3     1  UNL1       -0.4701
@<TRIPOS>BOND
     1    30    31    1
     2     1    31    1
     3     2     3   ar
     4     4    17    1
     5     4     5   ar
     6    15    19    1
     7    19    21   am
     8    23    21    1
     9    23    24    1
    10    25    26   ar
    11    27    29   ar
    12    28    24   ar
    13     6    13    1
    14     6     1   ar
    15     7    13    1
    16     7     8    1
    17     8     9    1
    18     9    10    1
    19    10    14    1
    20    17    15   am
    21    14    13    1
    22     1     2   ar
    23     3     4   ar
    24    15    16    2
    25    19    20    2
    26    24    25   ar
    27    26    27   ar
    28    28    29   ar
    29     5     6   ar
    30    14    11    2
    31    14    12    2
    32    17    18    1
    33    21    22    1
@<TRIPOS>MOLECULE
MolPort-008-338-731 36353994 CSSS00160717244 LN00877548 MCULE-5276027582 PubChem-45491328 ZINC000036353994 ZINC36353994
 31 33 0 0 0
SMALL
GASTEIGER

@<TRIPOS>ATOM
      1 C           6.9062   41.6220   11.2386 C.ar    1  UNL1        0.1535
      2 C           7.9636   41.0737   11.9841 C.ar    1  UNL1        0.0395
      3 C           9.2430   40.9742   11.4375 C.ar    1  UNL1        0.0179
      4 C           9.4909   41.4254   10.1365 C.ar    1  UNL1        0.0521
      5 C           8.4406   41.9619    9.3877 C.ar    1  UNL1        0.0339
      6 C           7.1447   42.0657    9.9180 C.ar    1  UNL1        0.1035
      7 C           4.8823   41.8587    8.8146 C.3     1  UNL1        0.1156
      8 C           3.5989   42.6964    8.9531 C.3     1  UNL1        0.0252
      9 C           3.7424   44.2090    8.7103 C.3     1  UNL1        0.0292
     10 C           4.7326   44.5486    7.6062 C.3     1  UNL1        0.1727
     11 O           7.2405   43.7646    6.9985 O.2     1  UNL1       -0.1543
     12 O           6.9335   45.1441    9.0197 O.2     1  UNL1       -0.1543
     13 N           6.0897   42.6247    9.1115 N.pl3   1  UNL1       -0.1914
     14 S           6.3420   44.0558    8.1668 S.O2    1  UNL1        0.0570
     15 C          11.1116   41.5650    8.1578 C.2     1  UNL1        0.3032
     16 O          10.2031   41.7525    7.3045 O.2     1  UNL1       -0.2648
     17 N          10.7885   41.3300    9.5359 N.am    1  UNL1       -0.2766
     18 H          11.5332   41.0780   10.1285 H       1  UNL1        0.1553
     19 C          12.5157   41.5646    7.7328 C.2     1  UNL1        0.3001
     20 O          12.8000   41.6676    6.5085 O.2     1  UNL1       -0.2651
     21 N          13.5554   41.4484    8.7057 N.am    1  UNL1       -0.2931
     22 H          13.3153   41.4273    9.6603 H       1  UNL1        0.1502
     23 C          14.9578   41.3604    8.3294 C.3     1  UNL1        0.1182
     24 C          15.6963   40.5245    9.3148 C.ar    1  UNL1        0.0166
     25 C          15.0197   39.5921   10.1071 C.ar    1  UNL1        0.0005
     26 C          15.7305   38.8136   11.0226 C.ar    1  UNL1        0.0204
     27 C          17.1139   38.9781   11.1296 C.ar    1  UNL1        0.0989
     28 C          17.0806   40.6579    9.4506 C.ar    1  UNL1        0.0962
     29 N          17.7551   39.8889   10.3480 N.ar    1  UNL1       -0.2426
     30 C           4.6815   40.6932   11.8138 C.3     1  UNL1        0.2525
     31 O           5.6308   41.7512   11.8015 O.3     1  UNL1       -0.4701
@<TRIPOS>BOND
     1    30    31    1
     2     1    31    1
     3     2     3   ar
     4     4    17    1
     5     4     5   ar
     6    15    19    1
     7    19    21   am
     8    23    21    1
     9    23    24    1
    10    25    26   ar
    11    27    29   ar
    12    28    24   ar
    13     6    13    1
    14     6     1   ar
    15     7    13    1
    16     7     8    1
    17     8     9    1
    18     9    10    1
    19    10    14    1
    20    17    15   am
    21    14    13    1
    22     1     2   ar
    23     3     4   ar
    24    15    16    2
    25    19    20    2
    26    24    25   ar
    27    26    27   ar
    28    28    29   ar
    29     5     6   ar
    30    14    11    2
    31    14    12    2
    32    17    18    1
    33    21    22    1
@<TRIPOS>MOLECULE
MolPort-008-338-731 36353994 CSSS00160717244 LN00877548 MCULE-5276027582 PubChem-45491328 ZINC000036353994 ZINC36353994
 31 33 0 0 0
SMALL
GASTEIGER

@<TRIPOS>ATOM
      1 C          14.6598   34.9092    9.1535 C.ar    1  UNL1        0.1535
      2 C          13.4162   35.2499    9.7120 C.ar    1  UNL1        0.0395
      3 C          12.9841   36.5760    9.7313 C.ar    1  UNL1        0.0179
      4 C          13.7850   37.5865    9.1882 C.ar    1  UNL1        0.0521
      5 C          15.0267   37.2541    8.6409 C.ar    1  UNL1        0.0339
      6 C          15.4818   35.9261    8.6169 C.ar    1  UNL1        0.1035
      7 C          16.8992   34.6869    6.9333 C.3     1  UNL1        0.1156
      8 C          17.8576   35.1896    5.8394 C.3     1  UNL1        0.0252
      9 C          18.9747   36.1437    6.2972 C.3     1  UNL1        0.0292
     10 C          19.5333   35.7992    7.6698 C.3     1  UNL1        0.1727
     11 O          18.4483   35.2080   10.0671 O.2     1  UNL1       -0.1543
     12 O          18.2025   37.5188    9.2410 O.2     1  UNL1       -0.1543
     13 N          16.7694   35.6266    8.0437 N.pl3   1  UNL1       -0.1914
     14 S          18.2380   36.0665    8.8522 S.O2    1  UNL1        0.0570
     15 C          12.1309   39.4886    8.7329 C.2     1  UNL1        0.3032
     16 O          11.3071   38.7539    8.1246 O.2     1  UNL1       -0.2648
     17 N          13.3813   38.9614    9.1992 N.am    1  UNL1       -0.2766
     18 H          14.0268   39.6095    9.5633 H       1  UNL1        0.1553
     19 C          11.8173   40.9056    8.9471 C.2     1  UNL1        0.3001
     20 O          12.7523   41.7442    9.0613 O.2     1  UNL1       -0.2651
     21 N          10.4557   41.3309    9.0250 N.am    1  UNL1       -0.2931
     22 H           9.7405   40.6710    8.8760 H       1  UNL1        0.1502
     23 C          10.0935   42.7091    9.3179 C.3     1  UNL1        0.1182
     24 C           8.7974   43.0426    8.6666 C.ar    1  UNL1        0.0166
     25 C           7.9871   44.0631    9.1733 C.ar    1  UNL1        0.0005
     26 C           6.7768   44.3645    8.5457 C.ar    1  UNL1        0.0204
     27 C           6.3956   43.6395    7.4138 C.ar    1  UNL1        0.0989
     28 C           8.3815   42.3416    7.5316 C.ar    1  UNL1        0.0962
     29 N           7.1989   42.6515    6.9339 N.ar    1  UNL1       -0.2426
     30 C          14.2330   32.5172    8.6651 C.3     1  UNL1        0.2525
     31 O          15.0762   33.5733    9.1056 O.3     1  UNL1       -0.4701
@<TRIPOS>BOND
     1    30    31    1
     2     1    31    1
     3     2     3   ar
     4     4    17    1
     5     4     5   ar
     6    15    19    1
     7    19    21   am
     8    23    21    1
     9    23    24    1
    10    25    26   ar
    11    27    29   ar
    12    28    24   ar
    13     6    13    1
    14     6     1   ar
    15     7    13    1
    16     7     8    1
    17     8     9    1
    18     9    10    1
    19    10    14    1
    20    17    15   am
    21    14    13    1
    22     1     2   ar
    23     3     4   ar
    24    15    16    2
    25    19    20    2
    26    24    25   ar
    27    26    27   ar
    28    28    29   ar
    29     5     6   ar
    30    14    11    2
    31    14    12    2
    32    17    18    1
    33    21    22    1
