@<TRIPOS>MOLECULE
MolPort-002-773-376 20607015 CSSS00133006964 MCULE-3488812957 PubChem-19617137 ZINC000020607015 ZINC20607015
 27 29 0 0 0
SMALL
GASTEIGER

@<TRIPOS>ATOM
      1 C           7.0082   42.0842    8.6032 C.2     1  UNL1        0.2567
      2 N           7.9365   40.9930    8.5592 N.am    1  UNL1       -0.2640
      3 O           7.1838   43.1080    7.8890 O.2     1  UNL1       -0.2692
      4 H           7.7489   40.2198    9.1391 H       1  UNL1        0.1566
      5 C           5.8408   42.0081    9.4903 C.ar    1  UNL1        0.0846
      6 C           5.3692   40.8148   10.0754 C.ar    1  UNL1        0.0146
      7 C           4.2558   41.1134   10.8488 C.ar    1  UNL1        0.0475
      8 C           3.8961   42.3954   10.8741 C.ar    1  UNL1        0.1088
      9 C           2.1971   43.8459   11.9970 C.3     1  UNL1        0.1543
     10 C           3.3638   40.4709   11.6846 C.ar    1  UNL1        0.1740
     11 N           2.8494   42.5876   11.6832 N.ar    1  UNL1       -0.2428
     12 N           2.5147   41.4065   12.1983 N.ar    1  UNL1       -0.1648
     13 S           4.8928   43.3673    9.9524 S.2     1  UNL1       -0.0637
     14 C           3.3787   39.0279   12.0756 C.3     1  UNL1        0.4366
     15 F           3.1392   38.2472   10.9605 F       1  UNL1       -0.1643
     16 F           4.6108   38.6949   12.6081 F       1  UNL1       -0.1643
     17 F           2.3991   38.7866   13.0214 F       1  UNL1       -0.1643
     18 C           9.1131   40.9293    7.7455 C.ar    1  UNL1        0.1553
     19 C          10.1270   41.8794    7.6980 C.ar    1  UNL1        0.0505
     20 C          10.9950   41.3347    6.7706 C.ar    1  UNL1        0.0588
     21 C          12.2750   41.9560    6.3279 C.3     1  UNL1        0.0518
     22 N          10.5151   40.1600    6.3245 N.ar    1  UNL1       -0.2537
     23 N           9.3604   39.9025    6.9107 N.ar    1  UNL1       -0.1543
     24 C          11.1318   39.2971    5.3274 C.3     1  UNL1        0.1271
     25 C          10.1142   38.2986    4.8005 C.3     1  UNL1        0.0263
     26 C          10.4519   39.8713    2.8961 C.3     1  UNL1        0.0001
     27 C           9.6189   38.7207    3.4291 C.3     1  UNL1        0.0021
@<TRIPOS>BOND
     1    26    27    1
     2    27    25    1
     3    25    24    1
     4    24    22    1
     5    18     2    1
     6    18    19   ar
     7     1     5    1
     8     5    13   ar
     9     6     7   ar
    10     8    13   ar
    11     8    11   ar
    12     9    11    1
    13    10     7   ar
    14    14    10    1
    15    14    15    1
    16    14    16    1
    17    14    17    1
    18    20    22   ar
    19    21    20    1
    20    22    23   ar
    21     2     1   am
    22    11    12   ar
    23    18    23   ar
    24     1     3    2
    25     5     6   ar
    26     7     8   ar
    27    10    12   ar
    28    19    20   ar
    29     2     4    1
@<TRIPOS>MOLECULE
MolPort-002-773-376 20607015 CSSS00133006964 MCULE-3488812957 PubChem-19617137 ZINC000020607015 ZINC20607015
 27 29 0 0 0
SMALL
GASTEIGER

@<TRIPOS>ATOM
      1 C           9.5498   42.4031    9.7157 C.2     1  UNL1        0.2567
      2 N          10.1171   41.0905    9.6177 N.am    1  UNL1       -0.2640
      3 O          10.2793   43.4040    9.9508 O.2     1  UNL1       -0.2692
      4 H           9.4993   40.3466    9.4331 H       1  UNL1        0.1566
      5 C           8.1033   42.5830    9.5407 C.ar    1  UNL1        0.0846
      6 C           7.1254   41.7936   10.1807 C.ar    1  UNL1        0.0146
      7 C           5.8716   42.2403    9.7868 C.ar    1  UNL1        0.0475
      8 C           5.8634   43.2671    8.9388 C.ar    1  UNL1        0.1088
      9 C           4.2017   44.7562    7.8108 C.3     1  UNL1        0.1543
     10 C           4.5412   41.9670   10.0366 C.ar    1  UNL1        0.1740
     11 N           4.6144   43.6545    8.6611 N.ar    1  UNL1       -0.2428
     12 N           3.7859   42.8641    9.3402 N.ar    1  UNL1       -0.1648
     13 S           7.3976   43.7924    8.5412 S.2     1  UNL1       -0.0637
     14 C           3.9961   40.9555   10.9932 C.3     1  UNL1        0.4366
     15 F           3.2881   39.9963   10.2939 F       1  UNL1       -0.1643
     16 F           5.0314   40.3469   11.6789 F       1  UNL1       -0.1643
     17 F           3.1553   41.5722   11.9015 F       1  UNL1       -0.1643
     18 C          11.5043   40.7668    9.7650 C.ar    1  UNL1        0.1553
     19 C          12.5296   41.1534    8.9093 C.ar    1  UNL1        0.0505
     20 C          13.6384   40.5819    9.5045 C.ar    1  UNL1        0.0588
     21 C          15.0331   40.6809    8.9893 C.3     1  UNL1        0.0518
     22 N          13.2745   39.9215   10.6183 N.ar    1  UNL1       -0.2537
     23 N          11.9689   40.0233   10.7866 N.ar    1  UNL1       -0.1543
     24 C          14.1535   39.1737   11.5057 C.3     1  UNL1        0.1271
     25 C          14.4695   37.8146   10.9031 C.3     1  UNL1        0.0263
     26 C          13.1008   35.9679    9.9387 C.3     1  UNL1        0.0001
     27 C          13.3290   36.8452   11.1553 C.3     1  UNL1        0.0021
@<TRIPOS>BOND
     1    26    27    1
     2    27    25    1
     3    25    24    1
     4    24    22    1
     5    18     2    1
     6    18    19   ar
     7     1     5    1
     8     5    13   ar
     9     6     7   ar
    10     8    13   ar
    11     8    11   ar
    12     9    11    1
    13    10     7   ar
    14    14    10    1
    15    14    15    1
    16    14    16    1
    17    14    17    1
    18    20    22   ar
    19    21    20    1
    20    22    23   ar
    21     2     1   am
    22    11    12   ar
    23    18    23   ar
    24     1     3    2
    25     5     6   ar
    26     7     8   ar
    27    10    12   ar
    28    19    20   ar
    29     2     4    1
@<TRIPOS>MOLECULE
MolPort-002-773-376 20607015 CSSS00133006964 MCULE-3488812957 PubChem-19617137 ZINC000020607015 ZINC20607015
 27 29 0 0 0
SMALL
GASTEIGER

@<TRIPOS>ATOM
      1 C          11.9451   41.5382    7.2600 C.2     1  UNL1        0.2567
      2 N          10.9974   40.8200    8.0603 N.am    1  UNL1       -0.2640
      3 O          11.5776   42.1499    6.2206 O.2     1  UNL1       -0.2692
      4 H          11.3414   40.3608    8.8603 H       1  UNL1        0.1566
      5 C          13.3588   41.5609    7.6553 C.ar    1  UNL1        0.0846
      6 C          14.3053   42.4780    7.1532 C.ar    1  UNL1        0.0146
      7 C          15.5337   42.2097    7.7413 C.ar    1  UNL1        0.0475
      8 C          15.5508   41.2010    8.6107 C.ar    1  UNL1        0.1088
      9 C          17.1621   40.0942   10.1694 C.3     1  UNL1        0.1543
     10 C          16.8212   42.7090    7.7413 C.ar    1  UNL1        0.1740
     11 N          16.7617   41.0556    9.1582 N.ar    1  UNL1       -0.2428
     12 N          17.5558   41.9876    8.6357 N.ar    1  UNL1       -0.1648
     13 S          14.0563   40.4807    8.7982 S.2     1  UNL1       -0.0637
     14 C          17.3204   43.9065    6.9982 C.3     1  UNL1        0.4366
     15 F          17.6325   43.5452    5.7011 F       1  UNL1       -0.1643
     16 F          16.3470   44.8885    6.9752 F       1  UNL1       -0.1643
     17 F          18.4508   44.4071    7.6177 F       1  UNL1       -0.1643
     18 C           9.5938   40.7120    7.7977 C.ar    1  UNL1        0.1553
     19 C           9.0000   39.8830    6.8525 C.ar    1  UNL1        0.0505
     20 C           7.6578   40.1703    7.0137 C.ar    1  UNL1        0.0588
     21 C           6.5501   39.5521    6.2318 C.3     1  UNL1        0.0518
     22 N           7.4964   41.0914    7.9806 N.ar    1  UNL1       -0.2537
     23 N           8.6754   41.4348    8.4657 N.ar    1  UNL1       -0.1543
     24 C           6.2348   41.6652    8.4256 C.3     1  UNL1        0.1271
     25 C           6.1243   43.1075    7.9591 C.3     1  UNL1        0.0263
     26 C           4.2428   44.7331    7.7818 C.3     1  UNL1        0.0001
     27 C           5.0218   43.8260    8.7157 C.3     1  UNL1        0.0021
@<TRIPOS>BOND
     1    26    27    1
     2    27    25    1
     3    25    24    1
     4    24    22    1
     5    18     2    1
     6    18    19   ar
     7     1     5    1
     8     5    13   ar
     9     6     7   ar
    10     8    13   ar
    11     8    11   ar
    12     9    11    1
    13    10     7   ar
    14    14    10    1
    15    14    15    1
    16    14    16    1
    17    14    17    1
    18    20    22   ar
    19    21    20    1
    20    22    23   ar
    21     2     1   am
    22    11    12   ar
    23    18    23   ar
    24     1     3    2
    25     5     6   ar
    26     7     8   ar
    27    10    12   ar
    28    19    20   ar
    29     2     4    1
@<TRIPOS>MOLECULE
MolPort-002-773-376 20607015 CSSS00133006964 MCULE-3488812957 PubChem-19617137 ZINC000020607015 ZINC20607015
 27 29 0 0 0
SMALL
GASTEIGER

@<TRIPOS>ATOM
      1 C           9.0587   42.0074    8.5784 C.2     1  UNL1        0.2567
      2 N           9.7240   41.4763    9.7315 N.am    1  UNL1       -0.2640
      3 O           9.6770   42.1565    7.4900 O.2     1  UNL1       -0.2692
      4 H           9.1913   41.3826   10.5542 H       1  UNL1        0.1566
      5 C           7.6419   42.3819    8.6667 C.ar    1  UNL1        0.0846
      6 C           6.6938   41.7063    9.4627 C.ar    1  UNL1        0.0146
      7 C           5.4626   42.3274    9.3040 C.ar    1  UNL1        0.0475
      8 C           5.4449   43.3751    8.4821 C.ar    1  UNL1        0.1088
      9 C           3.8283   45.1080    7.6853 C.3     1  UNL1        0.1543
     10 C           4.1722   42.2229    9.7846 C.ar    1  UNL1        0.1740
     11 N           4.2308   43.9327    8.4363 N.ar    1  UNL1       -0.2428
     12 N           3.4350   43.2351    9.2441 N.ar    1  UNL1       -0.1648
     13 S           6.9422   43.7075    7.8224 S.2     1  UNL1       -0.0637
     14 C           3.6715   41.2593   10.8124 C.3     1  UNL1        0.4366
     15 F           3.2108   40.1169   10.1855 F       1  UNL1       -0.1643
     16 F           4.6931   40.9211   11.6809 F       1  UNL1       -0.1643
     17 F           2.6397   41.8333   11.5323 F       1  UNL1       -0.1643
     18 C          11.0959   41.0701    9.7914 C.ar    1  UNL1        0.1553
     19 C          11.6693   40.2683   10.7719 C.ar    1  UNL1        0.0505
     20 C          12.9854   40.1944   10.3565 C.ar    1  UNL1        0.0588
     21 C          14.0647   39.4464   11.0606 C.3     1  UNL1        0.0518
     22 N          13.1508   40.8980    9.2221 N.ar    1  UNL1       -0.2537
     23 N          12.0015   41.4431    8.8680 N.ar    1  UNL1       -0.1543
     24 C          14.3962   41.0773    8.4901 C.3     1  UNL1        0.1271
     25 C          14.1519   41.9067    7.2401 C.3     1  UNL1        0.0263
     26 C          15.0305   43.7416    5.7995 C.3     1  UNL1        0.0001
     27 C          15.3100   42.8585    7.0011 C.3     1  UNL1        0.0021
@<TRIPOS>BOND
     1    26    27    1
     2    27    25    1
     3    25    24    1
     4    24    22    1
     5    18     2    1
     6    18    19   ar
     7     1     5    1
     8     5    13   ar
     9     6     7   ar
    10     8    13   ar
    11     8    11   ar
    12     9    11    1
    13    10     7   ar
    14    14    10    1
    15    14    15    1
    16    14    16    1
    17    14    17    1
    18    20    22   ar
    19    21    20    1
    20    22    23   ar
    21     2     1   am
    22    11    12   ar
    23    18    23   ar
    24     1     3    2
    25     5     6   ar
    26     7     8   ar
    27    10    12   ar
    28    19    20   ar
    29     2     4    1
@<TRIPOS>MOLECULE
MolPort-002-773-376 20607015 CSSS00133006964 MCULE-3488812957 PubChem-19617137 ZINC000020607015 ZINC20607015
 27 29 0 0 0
SMALL
GASTEIGER

@<TRIPOS>ATOM
      1 C          12.0257   41.8236    7.8843 C.2     1  UNL1        0.2567
      2 N          11.1758   41.7777    9.0376 N.am    1  UNL1       -0.2640
      3 O          11.5354   41.9134    6.7264 O.2     1  UNL1       -0.2692
      4 H          11.6142   41.7068    9.9162 H       1  UNL1        0.1566
      5 C          13.4828   41.7648    8.0542 C.ar    1  UNL1        0.0846
      6 C          14.3899   42.6262    7.4029 C.ar    1  UNL1        0.0146
      7 C          15.6778   42.2874    7.7946 C.ar    1  UNL1        0.0475
      8 C          15.7730   41.2791    8.6594 C.ar    1  UNL1        0.1088
      9 C          17.5423   40.0809    9.9573 C.3     1  UNL1        0.1543
     10 C          16.9758   42.7119    7.5897 C.ar    1  UNL1        0.1740
     11 N          17.0442   41.0641    9.0127 N.ar    1  UNL1       -0.2428
     12 N          17.7988   41.9491    8.3648 N.ar    1  UNL1       -0.1648
     13 S          14.2876   40.6458    9.0837 S.2     1  UNL1       -0.0637
     14 C          17.4201   43.8790    6.7675 C.3     1  UNL1        0.4366
     15 F          16.3980   44.8067    6.6962 F       1  UNL1       -0.1643
     16 F          18.5301   44.4685    7.3443 F       1  UNL1       -0.1643
     17 F          17.7455   43.4585    5.4910 F       1  UNL1       -0.1643
     18 C           9.7447   41.8259    9.0232 C.ar    1  UNL1        0.1553
     19 C           8.9068   41.5663   10.1020 C.ar    1  UNL1        0.0505
     20 C           7.6533   41.7490    9.5493 C.ar    1  UNL1        0.0588
     21 C           6.3642   41.5906   10.2797 C.3     1  UNL1        0.0518
     22 N           7.7664   42.0908    8.2532 N.ar    1  UNL1       -0.2537
     23 N           9.0426   42.1368    7.9176 N.ar    1  UNL1       -0.1543
     24 C           6.6719   42.3461    7.3281 C.3     1  UNL1        0.1271
     25 C           6.8272   41.4844    6.0857 C.3     1  UNL1        0.0263
     26 C           7.6948   39.1517    6.2264 C.3     1  UNL1        0.0001
     27 C           6.4768   40.0403    6.3955 C.3     1  UNL1        0.0021
@<TRIPOS>BOND
     1    26    27    1
     2    27    25    1
     3    25    24    1
     4    24    22    1
     5    18     2    1
     6    18    19   ar
     7     1     5    1
     8     5    13   ar
     9     6     7   ar
    10     8    13   ar
    11     8    11   ar
    12     9    11    1
    13    10     7   ar
    14    14    10    1
    15    14    15    1
    16    14    16    1
    17    14    17    1
    18    20    22   ar
    19    21    20    1
    20    22    23   ar
    21     2     1   am
    22    11    12   ar
    23    18    23   ar
    24     1     3    2
    25     5     6   ar
    26     7     8   ar
    27    10    12   ar
    28    19    20   ar
    29     2     4    1
@<TRIPOS>MOLECULE
MolPort-002-773-376 20607015 CSSS00133006964 MCULE-3488812957 PubChem-19617137 ZINC000020607015 ZINC20607015
 27 29 0 0 0
SMALL
GASTEIGER

@<TRIPOS>ATOM
      1 C           9.0701   41.7841    9.0169 C.2     1  UNL1        0.2567
      2 N           9.3855   40.6015    9.7629 N.am    1  UNL1       -0.2640
      3 O           9.9730   42.4254    8.4147 O.2     1  UNL1       -0.2692
      4 H           8.6401   40.1421   10.2130 H       1  UNL1        0.1566
      5 C           7.6803   42.2532    8.9544 C.ar    1  UNL1        0.0846
      6 C           6.6212   41.6877    9.6943 C.ar    1  UNL1        0.0146
      7 C           5.4547   42.3760    9.3902 C.ar    1  UNL1        0.0475
      8 C           5.5822   43.3725    8.5161 C.ar    1  UNL1        0.1088
      9 C           4.1661   45.1556    7.4834 C.3     1  UNL1        0.1543
     10 C           4.1227   42.3828    9.7547 C.ar    1  UNL1        0.1740
     11 N           4.4184   44.0032    8.3292 N.ar    1  UNL1       -0.2428
     12 N           3.5080   43.4067    9.0960 N.ar    1  UNL1       -0.1648
     13 S           7.1513   43.5689    7.9805 S.2     1  UNL1       -0.0637
     14 C           3.4678   41.5154   10.7814 C.3     1  UNL1        0.4366
     15 F           3.4901   40.2011   10.3545 F       1  UNL1       -0.1643
     16 F           4.1427   41.6146   11.9844 F       1  UNL1       -0.1643
     17 F           2.1565   41.9136   10.9664 F       1  UNL1       -0.1643
     18 C          10.6901   40.0299    9.9104 C.ar    1  UNL1        0.1553
     19 C          11.6480   40.4085   10.8444 C.ar    1  UNL1        0.0505
     20 C          12.6953   39.5555   10.5514 C.ar    1  UNL1        0.0588
     21 C          14.0050   39.5325   11.2616 C.3     1  UNL1        0.0518
     22 N          12.3598   38.7478    9.5295 N.ar    1  UNL1       -0.2537
     23 N          11.1354   39.0315    9.1249 N.ar    1  UNL1       -0.1543
     24 C          13.2031   37.7301    8.9195 C.3     1  UNL1        0.1271
     25 C          13.6860   36.7505    9.9765 C.3     1  UNL1        0.0263
     26 C          11.5978   35.7330   10.8808 C.3     1  UNL1        0.0001
     27 C          12.8076   35.5126    9.9923 C.3     1  UNL1        0.0021
@<TRIPOS>BOND
     1    26    27    1
     2    27    25    1
     3    25    24    1
     4    24    22    1
     5    18     2    1
     6    18    19   ar
     7     1     5    1
     8     5    13   ar
     9     6     7   ar
    10     8    13   ar
    11     8    11   ar
    12     9    11    1
    13    10     7   ar
    14    14    10    1
    15    14    15    1
    16    14    16    1
    17    14    17    1
    18    20    22   ar
    19    21    20    1
    20    22    23   ar
    21     2     1   am
    22    11    12   ar
    23    18    23   ar
    24     1     3    2
    25     5     6   ar
    26     7     8   ar
    27    10    12   ar
    28    19    20   ar
    29     2     4    1
@<TRIPOS>MOLECULE
MolPort-002-773-376 20607015 CSSS00133006964 MCULE-3488812957 PubChem-19617137 ZINC000020607015 ZINC20607015
 27 29 0 0 0
SMALL
GASTEIGER

@<TRIPOS>ATOM
      1 C          10.5324   41.8159    7.6691 C.2     1  UNL1        0.2567
      2 N           9.7387   42.4118    8.7032 N.am    1  UNL1       -0.2640
      3 O           9.9932   41.3661    6.6221 O.2     1  UNL1       -0.2692
      4 H          10.2138   42.7453    9.4984 H       1  UNL1        0.1566
      5 C          11.9888   41.7283    7.8320 C.ar    1  UNL1        0.0846
      6 C          12.9130   42.5183    7.1174 C.ar    1  UNL1        0.0146
      7 C          14.1947   42.1710    7.5217 C.ar    1  UNL1        0.0475
      8 C          14.2704   41.2210    8.4519 C.ar    1  UNL1        0.1088
      9 C          16.0182   40.0641    9.8148 C.3     1  UNL1        0.1543
     10 C          15.5019   42.5446    7.2792 C.ar    1  UNL1        0.1740
     11 N          15.5385   40.9950    8.8097 N.ar    1  UNL1       -0.2428
     12 N          16.3109   41.8131    8.0980 N.ar    1  UNL1       -0.1648
     13 S          12.7722   40.6592    8.9288 S.2     1  UNL1       -0.0637
     14 C          15.9703   43.6409    6.3769 C.3     1  UNL1        0.4366
     15 F          15.7871   44.8601    7.0016 F       1  UNL1       -0.1643
     16 F          17.3125   43.4747    6.0882 F       1  UNL1       -0.1643
     17 F          15.2497   43.6192    5.1969 F       1  UNL1       -0.1643
     18 C           8.3151   42.5645    8.6806 C.ar    1  UNL1        0.1553
     19 C           7.6173   43.6538    8.1711 C.ar    1  UNL1        0.0505
     20 C           6.3031   43.2923    8.3998 C.ar    1  UNL1        0.0588
     21 C           5.1141   44.1168    8.0439 C.3     1  UNL1        0.0518
     22 N           6.2534   42.0856    8.9921 N.ar    1  UNL1       -0.2537
     23 N           7.4797   41.6311    9.1737 N.ar    1  UNL1       -0.1543
     24 C           5.0526   41.3768    9.4099 C.3     1  UNL1        0.1271
     25 C           5.1265   41.0547   10.8934 C.3     1  UNL1        0.0263
     26 C           2.8657   42.0743   10.6427 C.3     1  UNL1        0.0001
     27 C           3.7737   41.2645   11.5491 C.3     1  UNL1        0.0021
@<TRIPOS>BOND
     1    26    27    1
     2    27    25    1
     3    25    24    1
     4    24    22    1
     5    18     2    1
     6    18    19   ar
     7     1     5    1
     8     5    13   ar
     9     6     7   ar
    10     8    13   ar
    11     8    11   ar
    12     9    11    1
    13    10     7   ar
    14    14    10    1
    15    14    15    1
    16    14    16    1
    17    14    17    1
    18    20    22   ar
    19    21    20    1
    20    22    23   ar
    21     2     1   am
    22    11    12   ar
    23    18    23   ar
    24     1     3    2
    25     5     6   ar
    26     7     8   ar
    27    10    12   ar
    28    19    20   ar
    29     2     4    1
@<TRIPOS>MOLECULE
MolPort-002-773-376 20607015 CSSS00133006964 MCULE-3488812957 PubChem-19617137 ZINC000020607015 ZINC20607015
 27 29 0 0 0
SMALL
GASTEIGER

@<TRIPOS>ATOM
      1 C          11.5584   41.3520    8.3150 C.2     1  UNL1        0.2567
      2 N          10.7812   41.8070    9.4301 N.am    1  UNL1       -0.2640
      3 O          10.9969   40.9415    7.2636 O.2     1  UNL1       -0.2692
      4 H          11.2735   42.1157   10.2248 H       1  UNL1        0.1566
      5 C          13.0240   41.3642    8.3992 C.ar    1  UNL1        0.0846
      6 C          13.8520   42.2219    7.6456 C.ar    1  UNL1        0.0146
      7 C          15.1744   41.9610    7.9771 C.ar    1  UNL1        0.0475
      8 C          15.3651   41.0113    8.8910 C.ar    1  UNL1        0.1088
      9 C          17.2592   39.9677   10.1457 C.3     1  UNL1        0.1543
     10 C          16.4379   42.4260    7.6697 C.ar    1  UNL1        0.1740
     11 N          16.6632   40.8708    9.1782 N.ar    1  UNL1       -0.2428
     12 N          17.3381   41.7460    8.4359 N.ar    1  UNL1       -0.1648
     13 S          13.9370   40.3434    9.4404 S.2     1  UNL1       -0.0637
     14 C          16.7806   43.5591    6.7564 C.3     1  UNL1        0.4366
     15 F          16.6256   44.7557    7.4305 F       1  UNL1       -0.1643
     16 F          18.0911   43.4433    6.3303 F       1  UNL1       -0.1643
     17 F          15.9455   43.5440    5.6542 F       1  UNL1       -0.1643
     18 C           9.3511   41.8515    9.4891 C.ar    1  UNL1        0.1553
     19 C           8.5702   41.5884   10.6090 C.ar    1  UNL1        0.0505
     20 C           7.2896   41.7686   10.1214 C.ar    1  UNL1        0.0588
     21 C           6.0400   41.6059   10.9166 C.3     1  UNL1        0.0518
     22 N           7.3354   42.1124    8.8218 N.ar    1  UNL1       -0.2537
     23 N           8.5925   42.1622    8.4213 N.ar    1  UNL1       -0.1543
     24 C           6.1943   42.3662    7.9543 C.3     1  UNL1        0.1271
     25 C           6.3199   43.7396    7.3155 C.3     1  UNL1        0.0263
     26 C           4.1864   43.9169    8.5924 C.3     1  UNL1        0.0001
     27 C           5.2915   44.6914    7.8990 C.3     1  UNL1        0.0021
@<TRIPOS>BOND
     1    26    27    1
     2    27    25    1
     3    25    24    1
     4    24    22    1
     5    18     2    1
     6    18    19   ar
     7     1     5    1
     8     5    13   ar
     9     6     7   ar
    10     8    13   ar
    11     8    11   ar
    12     9    11    1
    13    10     7   ar
    14    14    10    1
    15    14    15    1
    16    14    16    1
    17    14    17    1
    18    20    22   ar
    19    21    20    1
    20    22    23   ar
    21     2     1   am
    22    11    12   ar
    23    18    23   ar
    24     1     3    2
    25     5     6   ar
    26     7     8   ar
    27    10    12   ar
    28    19    20   ar
    29     2     4    1
@<TRIPOS>MOLECULE
MolPort-002-773-376 20607015 CSSS00133006964 MCULE-3488812957 PubChem-19617137 ZINC000020607015 ZINC20607015
 27 29 0 0 0
SMALL
GASTEIGER

@<TRIPOS>ATOM
      1 C           8.8991   42.1404    9.9869 C.2     1  UNL1        0.2567
      2 N           7.8427   41.1776    9.8794 N.am    1  UNL1       -0.2640
      3 O           8.6453   43.3494   10.2379 O.2     1  UNL1       -0.2692
      4 H           8.1002   40.2483    9.6813 H       1  UNL1        0.1566
      5 C          10.2915   41.7132    9.8020 C.ar    1  UNL1        0.0846
      6 C          11.1180   42.1480    8.7453 C.ar    1  UNL1        0.0146
      7 C          12.3615   41.5465    8.8824 C.ar    1  UNL1        0.0475
      8 C          12.4996   40.7360    9.9300 C.ar    1  UNL1        0.1088
      9 C          14.2841   39.3648   11.0192 C.3     1  UNL1        0.1543
     10 C          13.5944   41.5469    8.2603 C.ar    1  UNL1        0.1740
     11 N          13.7422   40.2482   10.0029 N.ar    1  UNL1       -0.2428
     12 N          14.4331   40.7483    8.9807 N.ar    1  UNL1       -0.1648
     13 S          11.1152   40.6329   10.8576 S.2     1  UNL1       -0.0637
     14 C          14.0039   42.3653    7.0780 C.3     1  UNL1        0.4366
     15 F          15.3664   42.2404    6.8823 F       1  UNL1       -0.1643
     16 F          13.3398   41.9274    5.9468 F       1  UNL1       -0.1643
     17 F          13.6936   43.6951    7.2961 F       1  UNL1       -0.1643
     18 C           6.4454   41.4496   10.0350 C.ar    1  UNL1        0.1553
     19 C           5.6454   42.1553    9.1434 C.ar    1  UNL1        0.0505
     20 C           4.4131   42.1243    9.7686 C.ar    1  UNL1        0.0588
     21 C           3.1681   42.7477    9.2380 C.3     1  UNL1        0.0518
     22 N           4.5016   41.4487   10.9283 N.ar    1  UNL1       -0.2537
     23 N           5.7425   41.0341   11.1053 N.ar    1  UNL1       -0.1543
     24 C           3.4235   41.2193   11.8792 C.3     1  UNL1        0.1271
     25 C           2.7216   42.5292   12.1980 C.3     1  UNL1        0.0263
     26 C           0.9712   42.2589   13.9522 C.3     1  UNL1        0.0001
     27 C           1.2459   42.2892   12.4604 C.3     1  UNL1        0.0021
@<TRIPOS>BOND
     1    26    27    1
     2    27    25    1
     3    25    24    1
     4    24    22    1
     5    18     2    1
     6    18    19   ar
     7     1     5    1
     8     5    13   ar
     9     6     7   ar
    10     8    13   ar
    11     8    11   ar
    12     9    11    1
    13    10     7   ar
    14    14    10    1
    15    14    15    1
    16    14    16    1
    17    14    17    1
    18    20    22   ar
    19    21    20    1
    20    22    23   ar
    21     2     1   am
    22    11    12   ar
    23    18    23   ar
    24     1     3    2
    25     5     6   ar
    26     7     8   ar
    27    10    12   ar
    28    19    20   ar
    29     2     4    1
@<TRIPOS>MOLECULE
MolPort-002-773-376 20607015 CSSS00133006964 MCULE-3488812957 PubChem-19617137 ZINC000020607015 ZINC20607015
 27 29 0 0 0
SMALL
GASTEIGER

@<TRIPOS>ATOM
      1 C           9.5572   41.8251    9.8678 C.2     1  UNL1        0.2567
      2 N           9.9780   40.4660    9.6943 N.am    1  UNL1       -0.2640
      3 O          10.3772   42.7119   10.2292 O.2     1  UNL1       -0.2692
      4 H           9.2943   39.8166    9.4113 H       1  UNL1        0.1566
      5 C           8.1559   42.1876    9.6223 C.ar    1  UNL1        0.0846
      6 C           7.0550   41.5318   10.2114 C.ar    1  UNL1        0.0146
      7 C           5.8893   42.1335    9.7573 C.ar    1  UNL1        0.0475
      8 C           6.0541   43.1498    8.9126 C.ar    1  UNL1        0.1088
      9 C           4.6535   44.8346    7.7082 C.3     1  UNL1        0.1543
     10 C           4.5243   42.0331    9.9406 C.ar    1  UNL1        0.1740
     11 N           4.8799   43.6924    8.5748 N.ar    1  UNL1       -0.2428
     12 N           3.9249   43.0167    9.2103 N.ar    1  UNL1       -0.1648
     13 S           7.6604   43.4734    8.5924 S.2     1  UNL1       -0.0637
     14 C           3.8081   41.1030   10.8666 C.3     1  UNL1        0.4366
     15 F           4.7187   40.5205   11.7279 F       1  UNL1       -0.1643
     16 F           2.8673   41.8000   11.6026 F       1  UNL1       -0.1643
     17 F           3.1697   40.1148   10.1399 F       1  UNL1       -0.1643
     18 C          11.3062   39.9703    9.8966 C.ar    1  UNL1        0.1553
     19 C          12.4820   40.6972    9.7473 C.ar    1  UNL1        0.0505
     20 C          13.4477   39.7576   10.0551 C.ar    1  UNL1        0.0588
     21 C          14.9168   40.0064   10.0492 C.3     1  UNL1        0.0518
     22 N          12.8673   38.5833   10.3608 N.ar    1  UNL1       -0.2537
     23 N          11.5557   38.6992   10.2630 N.ar    1  UNL1       -0.1543
     24 C          13.5508   37.3485   10.7174 C.3     1  UNL1        0.1271
     25 C          13.3998   36.3277    9.6014 C.3     1  UNL1        0.0263
     26 C          15.7587   36.0160    8.8580 C.3     1  UNL1        0.0001
     27 C          14.4050   36.5981    8.4966 C.3     1  UNL1        0.0021
@<TRIPOS>BOND
     1    26    27    1
     2    27    25    1
     3    25    24    1
     4    24    22    1
     5    18     2    1
     6    18    19   ar
     7     1     5    1
     8     5    13   ar
     9     6     7   ar
    10     8    13   ar
    11     8    11   ar
    12     9    11    1
    13    10     7   ar
    14    14    10    1
    15    14    15    1
    16    14    16    1
    17    14    17    1
    18    20    22   ar
    19    21    20    1
    20    22    23   ar
    21     2     1   am
    22    11    12   ar
    23    18    23   ar
    24     1     3    2
    25     5     6   ar
    26     7     8   ar
    27    10    12   ar
    28    19    20   ar
    29     2     4    1
