@<TRIPOS>MOLECULE
MolPort-039-210-479 CSSS03437018559 MCULE-2838403596 PubChem-119099794
 25 27 0 0 0
SMALL
GASTEIGER

@<TRIPOS>ATOM
      1 N          11.8349   41.2902    5.3860 N.pl3   1  UNL1       -0.2119
      2 H          12.3286   41.5926    4.5897 H       1  UNL1        0.1738
      3 C          10.5541   40.6849    5.2105 C.ar    1  UNL1        0.1043
      4 C           9.5207   40.7385    6.1168 C.ar    1  UNL1        0.1125
      5 C          10.1306   39.9458    4.1220 C.ar    1  UNL1        0.1375
      6 N           8.5137   40.0443    5.5581 N.ar    1  UNL1       -0.2456
      7 N           8.8630   39.5646    4.3743 N.ar    1  UNL1       -0.1662
      8 C           7.2162   39.8139    6.1729 C.3     1  UNL1        0.1569
      9 C           6.6409   41.1161    6.7070 C.3     1  UNL1        0.1395
     10 C           6.9450   41.2629    8.2087 C.3     1  UNL1        0.0317
     11 C           7.4064   42.6805    8.5563 C.3     1  UNL1        0.0051
     12 C           6.6142   43.7371    7.7820 C.3     1  UNL1        0.0322
     13 C           6.3788   43.3153    6.3222 C.3     1  UNL1        0.1421
     14 O           7.1611   42.1984    5.9746 O.3     1  UNL1       -0.3542
     15 S          12.5540   41.5134    6.9458 S.O2    1  UNL1        0.0737
     16 O          12.8622   40.1692    7.5435 O.2     1  UNL1       -0.1499
     17 O          11.6084   42.2678    7.8372 O.2     1  UNL1       -0.1499
     18 F          17.5654   44.5863    6.3409 F       1  UNL1       -0.2033
     19 C          16.4192   43.8774    6.4886 C.ar    1  UNL1        0.1507
     20 C          16.3126   42.8938    7.4815 C.ar    1  UNL1        0.0864
     21 C          15.1241   42.1709    7.6211 C.ar    1  UNL1        0.0338
     22 C          14.0402   42.4280    6.7748 C.ar    1  UNL1        0.1262
     23 C          14.1498   43.4078    5.7824 C.ar    1  UNL1        0.0225
     24 C          15.3371   44.1318    5.6404 C.ar    1  UNL1        0.0319
     25 CL         17.6568   42.5556    8.5552 Cl      1  UNL1       -0.0799
@<TRIPOS>BOND
     1    19    18    1
     2    20    25    1
     3    20    21   ar
     4    22    23   ar
     5    24    19   ar
     6     4     6   ar
     7     8     6    1
     8     9     8    1
     9     9    10    1
    10     9    14    1
    11    10    11    1
    12    11    12    1
    13    12    13    1
    14    13    14    1
    15     5     3   ar
    16    15    22    1
    17    15     1    1
    18     1     3    1
    19     6     7   ar
    20    19    20   ar
    21    21    22   ar
    22    23    24   ar
    23     3     4   ar
    24     5     7   ar
    25    15    16    2
    26    15    17    2
    27     1     2    1
@<TRIPOS>MOLECULE
MolPort-039-210-479 CSSS03437018559 MCULE-2838403596 PubChem-119099794
 25 27 0 0 0
SMALL
GASTEIGER

@<TRIPOS>ATOM
      1 N          11.9081   42.3183    8.8851 N.pl3   1  UNL1       -0.2119
      2 H          12.6014   42.5793    9.5335 H       1  UNL1        0.1738
      3 C          10.5377   42.3970    9.2768 C.ar    1  UNL1        0.1043
      4 C           9.5072   41.6884    8.7039 C.ar    1  UNL1        0.1125
      5 C          10.0079   43.1874   10.2793 C.ar    1  UNL1        0.1375
      6 N           8.3993   42.0608    9.3685 N.ar    1  UNL1       -0.2456
      7 N           8.6812   42.9535   10.3051 N.ar    1  UNL1       -0.1662
      8 C           7.0558   41.5804    9.0879 C.3     1  UNL1        0.1569
      9 C           6.0579   42.7264    9.1420 C.3     1  UNL1        0.1395
     10 C           6.4607   43.8378    8.1564 C.3     1  UNL1        0.0317
     11 C           5.2545   44.3656    7.3755 C.3     1  UNL1        0.0051
     12 C           4.0136   44.4804    8.2644 C.3     1  UNL1        0.0322
     13 C           3.8797   43.2775    9.2127 C.3     1  UNL1        0.1421
     14 O           4.7669   42.2426    8.8630 O.3     1  UNL1       -0.3542
     15 S          12.3984   41.7815    7.3131 S.O2    1  UNL1        0.0737
     16 O          11.3354   42.1443    6.3144 O.2     1  UNL1       -0.1499
     17 O          12.6046   40.2931    7.3268 O.2     1  UNL1       -0.1499
     18 F          17.4637   44.4239    5.8021 F       1  UNL1       -0.2033
     19 C          16.3062   43.8139    6.1573 C.ar    1  UNL1        0.1507
     20 C          16.2827   42.8865    7.2081 C.ar    1  UNL1        0.0864
     21 C          15.0812   42.2656    7.5623 C.ar    1  UNL1        0.0338
     22 C          13.9021   42.5687    6.8732 C.ar    1  UNL1        0.1262
     23 C          13.9284   43.4921    5.8226 C.ar    1  UNL1        0.0225
     24 C          15.1284   44.1142    5.4662 C.ar    1  UNL1        0.0319
     25 CL         17.7472   42.4922    8.0877 Cl      1  UNL1       -0.0799
@<TRIPOS>BOND
     1    19    18    1
     2    20    25    1
     3    20    21   ar
     4    22    23   ar
     5    24    19   ar
     6     4     6   ar
     7     8     6    1
     8     9     8    1
     9     9    10    1
    10     9    14    1
    11    10    11    1
    12    11    12    1
    13    12    13    1
    14    13    14    1
    15     5     3   ar
    16    15    22    1
    17    15     1    1
    18     1     3    1
    19     6     7   ar
    20    19    20   ar
    21    21    22   ar
    22    23    24   ar
    23     3     4   ar
    24     5     7   ar
    25    15    16    2
    26    15    17    2
    27     1     2    1
@<TRIPOS>MOLECULE
MolPort-039-210-479 CSSS03437018559 MCULE-2838403596 PubChem-119099794
 25 27 0 0 0
SMALL
GASTEIGER

@<TRIPOS>ATOM
      1 N           9.2243   40.2345    7.1242 N.pl3   1  UNL1       -0.2119
      2 H           9.2838   39.2636    7.2755 H       1  UNL1        0.1738
      3 C          10.4164   41.0158    7.2039 C.ar    1  UNL1        0.1043
      4 C          11.3368   41.1637    6.1924 C.ar    1  UNL1        0.1125
      5 C          10.8554   41.7463    8.2921 C.ar    1  UNL1        0.1375
      6 N          12.2911   41.9713    6.6875 N.ar    1  UNL1       -0.2456
      7 N          12.0200   42.3225    7.9352 N.ar    1  UNL1       -0.1662
      8 C          13.4862   42.3884    5.9718 C.3     1  UNL1        0.1569
      9 C          14.4901   43.0115    6.9287 C.3     1  UNL1        0.1395
     10 C          15.0939   41.9366    7.8503 C.3     1  UNL1        0.0317
     11 C          16.6083   42.1042    7.9980 C.3     1  UNL1        0.0051
     12 C          17.0049   43.5790    8.1035 C.3     1  UNL1        0.0322
     13 C          16.2014   44.4554    7.1286 C.3     1  UNL1        0.1421
     14 O          15.4917   43.6751    6.1972 O.3     1  UNL1       -0.3542
     15 S           7.6773   40.9289    6.7715 S.O2    1  UNL1        0.0737
     16 O           6.8936   39.9764    5.9126 O.2     1  UNL1       -0.1499
     17 O           7.8598   42.2367    6.0544 O.2     1  UNL1       -0.1499
     18 F           4.7718   41.8470   11.8349 F       1  UNL1       -0.2033
     19 C           5.4294   41.6364   10.6681 C.ar    1  UNL1        0.1507
     20 C           4.7235   41.3168    9.4999 C.ar    1  UNL1        0.0864
     21 C           5.4159   41.1022    8.3045 C.ar    1  UNL1        0.0338
     22 C           6.8105   41.2079    8.2699 C.ar    1  UNL1        0.1262
     23 C           7.5132   41.5238    9.4375 C.ar    1  UNL1        0.0225
     24 C           6.8234   41.7386   10.6342 C.ar    1  UNL1        0.0319
     25 CL          2.9756   41.1809    9.5184 Cl      1  UNL1       -0.0799
@<TRIPOS>BOND
     1    19    18    1
     2    20    25    1
     3    20    21   ar
     4    22    23   ar
     5    24    19   ar
     6     4     6   ar
     7     8     6    1
     8     9     8    1
     9     9    10    1
    10     9    14    1
    11    10    11    1
    12    11    12    1
    13    12    13    1
    14    13    14    1
    15     5     3   ar
    16    15    22    1
    17    15     1    1
    18     1     3    1
    19     6     7   ar
    20    19    20   ar
    21    21    22   ar
    22    23    24   ar
    23     3     4   ar
    24     5     7   ar
    25    15    16    2
    26    15    17    2
    27     1     2    1
@<TRIPOS>MOLECULE
MolPort-039-210-479 CSSS03437018559 MCULE-2838403596 PubChem-119099794
 25 27 0 0 0
SMALL
GASTEIGER

@<TRIPOS>ATOM
      1 N          13.9762   39.9635   10.7077 N.pl3   1  UNL1       -0.2119
      2 H          14.0277   40.2621   11.6444 H       1  UNL1        0.1738
      3 C          12.6903   39.7725   10.1181 C.ar    1  UNL1        0.1043
      4 C          11.8249   40.7797    9.7590 C.ar    1  UNL1        0.1125
      5 C          12.0917   38.5648    9.8119 C.ar    1  UNL1        0.1375
      6 N          10.7444   40.1630    9.2491 N.ar    1  UNL1       -0.2456
      7 N          10.8874   38.8469    9.2773 N.ar    1  UNL1       -0.1662
      8 C           9.5535   40.8363    8.7562 C.3     1  UNL1        0.1569
      9 C           9.5570   40.8809    7.2363 C.3     1  UNL1        0.1395
     10 C          10.8648   41.5067    6.7193 C.3     1  UNL1        0.0317
     11 C          11.4375   40.7231    5.5356 C.3     1  UNL1        0.0051
     12 C          10.3341   40.2493    4.5862 C.3     1  UNL1        0.0322
     13 C           9.1031   39.7395    5.3536 C.3     1  UNL1        0.1421
     14 O           9.3776   39.5829    6.7249 O.3     1  UNL1       -0.3542
     15 S          15.4493   39.6901    9.8389 S.O2    1  UNL1        0.0737
     16 O          15.2796   38.4941    8.9445 O.2     1  UNL1       -0.1499
     17 O          16.5730   39.4522   10.8077 O.2     1  UNL1       -0.1499
     18 F          16.6949   44.4541    6.5715 F       1  UNL1       -0.2033
     19 C          16.4007   43.3594    7.3154 C.ar    1  UNL1        0.1507
     20 C          15.1641   42.7144    7.1758 C.ar    1  UNL1        0.0864
     21 C          14.8754   41.5868    7.9502 C.ar    1  UNL1        0.0338
     22 C          15.8176   41.0988    8.8619 C.ar    1  UNL1        0.1262
     23 C          17.0498   41.7460    9.0020 C.ar    1  UNL1        0.0225
     24 C          17.3410   42.8738    8.2291 C.ar    1  UNL1        0.0319
     25 CL         13.9684   43.3063    6.0383 Cl      1  UNL1       -0.0799
@<TRIPOS>BOND
     1    19    18    1
     2    20    25    1
     3    20    21   ar
     4    22    23   ar
     5    24    19   ar
     6     4     6   ar
     7     8     6    1
     8     9     8    1
     9     9    10    1
    10     9    14    1
    11    10    11    1
    12    11    12    1
    13    12    13    1
    14    13    14    1
    15     5     3   ar
    16    15    22    1
    17    15     1    1
    18     1     3    1
    19     6     7   ar
    20    19    20   ar
    21    21    22   ar
    22    23    24   ar
    23     3     4   ar
    24     5     7   ar
    25    15    16    2
    26    15    17    2
    27     1     2    1
@<TRIPOS>MOLECULE
MolPort-039-210-479 CSSS03437018559 MCULE-2838403596 PubChem-119099794
 25 27 0 0 0
SMALL
GASTEIGER

@<TRIPOS>ATOM
      1 N          12.1318   41.1951    6.1428 N.pl3   1  UNL1       -0.2119
      2 H          12.7607   41.5173    5.4573 H       1  UNL1        0.1738
      3 C          10.7814   40.9287    5.7641 C.ar    1  UNL1        0.1043
      4 C           9.6715   41.2358    6.5164 C.ar    1  UNL1        0.1125
      5 C          10.3535   40.3214    4.5985 C.ar    1  UNL1        0.1375
      6 N           8.6180   40.8161    5.7941 N.ar    1  UNL1       -0.2456
      7 N           9.0083   40.2677    4.6537 N.ar    1  UNL1       -0.1662
      8 C           7.2279   40.9148    6.2095 C.3     1  UNL1        0.1569
      9 C           7.0508   42.0422    7.2142 C.3     1  UNL1        0.1395
     10 C           6.7395   43.3643    6.4902 C.3     1  UNL1        0.0317
     11 C           5.6140   44.1369    7.1828 C.3     1  UNL1        0.0051
     12 C           5.7282   44.0542    8.7071 C.3     1  UNL1        0.0322
     13 C           6.1245   42.6433    9.1723 C.3     1  UNL1        0.1421
     14 O           6.0315   41.7086    8.1244 O.3     1  UNL1       -0.3542
     15 S          12.7065   40.9732    7.7614 S.O2    1  UNL1        0.0737
     16 O          12.6905   39.5075    8.0938 O.2     1  UNL1       -0.1499
     17 O          11.8282   41.7273    8.7195 O.2     1  UNL1       -0.1499
     18 F          18.2329   43.0197    8.2021 F       1  UNL1       -0.2033
     19 C          16.9635   42.5561    8.0927 C.ar    1  UNL1        0.1507
     20 C          16.0597   43.1563    7.2051 C.ar    1  UNL1        0.0864
     21 C          14.7541   42.6670    7.1038 C.ar    1  UNL1        0.0338
     22 C          14.3475   41.5789    7.8834 C.ar    1  UNL1        0.1262
     23 C          15.2500   40.9835    8.7710 C.ar    1  UNL1        0.0225
     24 C          16.5561   41.4709    8.8745 C.ar    1  UNL1        0.0319
     25 CL         16.5471   44.5196    6.2162 Cl      1  UNL1       -0.0799
@<TRIPOS>BOND
     1    19    18    1
     2    20    25    1
     3    20    21   ar
     4    22    23   ar
     5    24    19   ar
     6     4     6   ar
     7     8     6    1
     8     9     8    1
     9     9    10    1
    10     9    14    1
    11    10    11    1
    12    11    12    1
    13    12    13    1
    14    13    14    1
    15     5     3   ar
    16    15    22    1
    17    15     1    1
    18     1     3    1
    19     6     7   ar
    20    19    20   ar
    21    21    22   ar
    22    23    24   ar
    23     3     4   ar
    24     5     7   ar
    25    15    16    2
    26    15    17    2
    27     1     2    1
@<TRIPOS>MOLECULE
MolPort-039-210-479 CSSS03437018559 MCULE-2838403596 PubChem-119099794
 25 27 0 0 0
SMALL
GASTEIGER

@<TRIPOS>ATOM
      1 N          13.7906   40.0005   10.6936 N.pl3   1  UNL1       -0.2119
      2 H          13.8440   40.0697   11.6742 H       1  UNL1        0.1738
      3 C          12.5218   40.1699   10.0618 C.ar    1  UNL1        0.1043
      4 C          11.9478   41.3796    9.7468 C.ar    1  UNL1        0.1125
      5 C          11.6552   39.1689    9.6646 C.ar    1  UNL1        0.1375
      6 N          10.7692   41.0817    9.1723 N.ar    1  UNL1       -0.2456
      7 N          10.5805   39.7721    9.1199 N.ar    1  UNL1       -0.1662
      8 C           9.8027   42.0575    8.6946 C.3     1  UNL1        0.1569
      9 C           8.6893   42.2471    9.7126 C.3     1  UNL1        0.1395
     10 C           7.3140   42.1808    9.0246 C.3     1  UNL1        0.0317
     11 C           6.3194   41.3394    9.8286 C.3     1  UNL1        0.0051
     12 C           6.4629   41.5817   11.3332 C.3     1  UNL1        0.0322
     13 C           7.9379   41.6841   11.7551 C.3     1  UNL1        0.1421
     14 O           8.8005   41.2736   10.7217 O.3     1  UNL1       -0.3542
     15 S          15.2398   39.6779    9.8017 S.O2    1  UNL1        0.0737
     16 O          15.0037   38.5128    8.8820 O.2     1  UNL1       -0.1499
     17 O          16.3609   39.3640   10.7517 O.2     1  UNL1       -0.1499
     18 F          16.6747   44.4539    6.6309 F       1  UNL1       -0.2033
     19 C          16.3375   43.3565    7.3521 C.ar    1  UNL1        0.1507
     20 C          15.1152   42.7067    7.1313 C.ar    1  UNL1        0.0864
     21 C          14.7816   41.5763    7.8833 C.ar    1  UNL1        0.0338
     22 C          15.6647   41.0902    8.8533 C.ar    1  UNL1        0.1262
     23 C          16.8826   41.7421    9.0743 C.ar    1  UNL1        0.0225
     24 C          17.2185   42.8727    8.3240 C.ar    1  UNL1        0.0319
     25 CL         13.9934   43.2961    5.9197 Cl      1  UNL1       -0.0799
@<TRIPOS>BOND
     1    19    18    1
     2    20    25    1
     3    20    21   ar
     4    22    23   ar
     5    24    19   ar
     6     4     6   ar
     7     8     6    1
     8     9     8    1
     9     9    10    1
    10     9    14    1
    11    10    11    1
    12    11    12    1
    13    12    13    1
    14    13    14    1
    15     5     3   ar
    16    15    22    1
    17    15     1    1
    18     1     3    1
    19     6     7   ar
    20    19    20   ar
    21    21    22   ar
    22    23    24   ar
    23     3     4   ar
    24     5     7   ar
    25    15    16    2
    26    15    17    2
    27     1     2    1
@<TRIPOS>MOLECULE
MolPort-039-210-479 CSSS03437018559 MCULE-2838403596 PubChem-119099794
 25 27 0 0 0
SMALL
GASTEIGER

@<TRIPOS>ATOM
      1 N          12.2485   40.8580    9.8670 N.pl3   1  UNL1       -0.2119
      2 H          12.7730   40.8638   10.7001 H       1  UNL1        0.1738
      3 C          10.9132   41.3622    9.8933 C.ar    1  UNL1        0.1043
      4 C          10.0185   41.1843   10.9228 C.ar    1  UNL1        0.1125
      5 C          10.2885   42.1015    8.9066 C.ar    1  UNL1        0.1375
      6 N           8.8950   41.8151   10.5382 N.ar    1  UNL1       -0.2456
      7 N           9.0399   42.3618    9.3409 N.ar    1  UNL1       -0.1662
      8 C           7.6636   41.8723   11.3095 C.3     1  UNL1        0.1569
      9 C           6.4635   41.5928   10.4186 C.3     1  UNL1        0.1395
     10 C           5.3166   40.9754   11.2387 C.3     1  UNL1        0.0317
     11 C           3.9655   41.5994   10.8804 C.3     1  UNL1        0.0051
     12 C           3.8422   41.8519    9.3756 C.3     1  UNL1        0.0322
     13 C           5.1507   42.3983    8.7812 C.3     1  UNL1        0.1421
     14 O           6.0550   42.7824    9.7886 O.3     1  UNL1       -0.3542
     15 S          12.9814   40.2367    8.4261 S.O2    1  UNL1        0.0737
     16 O          11.9037   39.8082    7.4700 O.2     1  UNL1       -0.1499
     17 O          13.8604   39.0668    8.7678 O.2     1  UNL1       -0.1499
     18 F          16.2557   44.4517    5.8891 F       1  UNL1       -0.2033
     19 C          15.5115   43.4838    6.4787 C.ar    1  UNL1        0.1507
     20 C          16.0338   42.7296    7.5385 C.ar    1  UNL1        0.0864
     21 C          15.2542   41.7348    8.1360 C.ar    1  UNL1        0.0338
     22 C          13.9537   41.4914    7.6813 C.ar    1  UNL1        0.1262
     23 C          13.4356   42.2430    6.6213 C.ar    1  UNL1        0.0225
     24 C          14.2131   43.2381    6.0219 C.ar    1  UNL1        0.0319
     25 CL         17.6600   43.0180    8.1269 Cl      1  UNL1       -0.0799
@<TRIPOS>BOND
     1    19    18    1
     2    20    25    1
     3    20    21   ar
     4    22    23   ar
     5    24    19   ar
     6     4     6   ar
     7     8     6    1
     8     9     8    1
     9     9    10    1
    10     9    14    1
    11    10    11    1
    12    11    12    1
    13    12    13    1
    14    13    14    1
    15     5     3   ar
    16    15    22    1
    17    15     1    1
    18     1     3    1
    19     6     7   ar
    20    19    20   ar
    21    21    22   ar
    22    23    24   ar
    23     3     4   ar
    24     5     7   ar
    25    15    16    2
    26    15    17    2
    27     1     2    1
@<TRIPOS>MOLECULE
MolPort-039-210-479 CSSS03437018559 MCULE-2838403596 PubChem-119099794
 25 27 0 0 0
SMALL
GASTEIGER

@<TRIPOS>ATOM
      1 N          12.8906   40.5549   10.2480 N.pl3   1  UNL1       -0.2119
      2 H          13.3145   40.6217   11.1341 H       1  UNL1        0.1738
      3 C          11.5254   40.9484   10.1091 C.ar    1  UNL1        0.1043
      4 C          10.9900   41.5802    9.0108 C.ar    1  UNL1        0.1125
      5 C          10.5156   40.7736   11.0366 C.ar    1  UNL1        0.1375
      6 N           9.6893   41.7639    9.2980 N.ar    1  UNL1       -0.2456
      7 N           9.3940   41.2926   10.4997 N.ar    1  UNL1       -0.1662
      8 C           8.7265   42.4201    8.4280 C.3     1  UNL1        0.1569
      9 C           8.4158   41.5470    7.2225 C.3     1  UNL1        0.1395
     10 C           9.4703   41.7555    6.1208 C.3     1  UNL1        0.0317
     11 C           9.9139   40.4266    5.5038 C.3     1  UNL1        0.0051
     12 C           8.7355   39.4656    5.3274 C.3     1  UNL1        0.0322
     13 C           7.7864   39.5009    6.5365 C.3     1  UNL1        0.1421
     14 O           8.3541   40.1987    7.6187 O.3     1  UNL1       -0.3542
     15 S          13.8299   39.9645    8.9181 S.O2    1  UNL1        0.0737
     16 O          12.9344   39.2031    7.9815 O.2     1  UNL1       -0.1499
     17 O          14.9228   39.0677    9.4274 O.2     1  UNL1       -0.1499
     18 F          16.2382   44.5156    6.0178 F       1  UNL1       -0.2033
     19 C          15.6932   43.4720    6.6903 C.ar    1  UNL1        0.1507
     20 C          16.3927   42.8554    7.7369 C.ar    1  UNL1        0.0864
     21 C          15.8174   41.7802    8.4206 C.ar    1  UNL1        0.0338
     22 C          14.5452   41.3194    8.0653 C.ar    1  UNL1        0.1262
     23 C          13.8503   41.9341    7.0183 C.ar    1  UNL1        0.0225
     24 C          14.4232   43.0092    6.3328 C.ar    1  UNL1        0.0319
     25 CL         17.9873   43.4167    8.2015 Cl      1  UNL1       -0.0799
@<TRIPOS>BOND
     1    19    18    1
     2    20    25    1
     3    20    21   ar
     4    22    23   ar
     5    24    19   ar
     6     4     6   ar
     7     8     6    1
     8     9     8    1
     9     9    10    1
    10     9    14    1
    11    10    11    1
    12    11    12    1
    13    12    13    1
    14    13    14    1
    15     5     3   ar
    16    15    22    1
    17    15     1    1
    18     1     3    1
    19     6     7   ar
    20    19    20   ar
    21    21    22   ar
    22    23    24   ar
    23     3     4   ar
    24     5     7   ar
    25    15    16    2
    26    15    17    2
    27     1     2    1
@<TRIPOS>MOLECULE
MolPort-039-210-479 CSSS03437018559 MCULE-2838403596 PubChem-119099794
 25 27 0 0 0
SMALL
GASTEIGER

@<TRIPOS>ATOM
      1 N          11.7520   41.6525    9.2592 N.pl3   1  UNL1       -0.2119
      2 H          12.2469   41.6974   10.1092 H       1  UNL1        0.1738
      3 C          10.3744   42.0263    9.2467 C.ar    1  UNL1        0.1043
      4 C           9.4190   41.5059    8.4049 C.ar    1  UNL1        0.1125
      5 C           9.7642   42.9638   10.0587 C.ar    1  UNL1        0.1375
      6 N           8.2732   42.1304    8.7288 N.ar    1  UNL1       -0.2456
      7 N           8.4639   43.0018    9.7075 N.ar    1  UNL1       -0.1662
      8 C           6.9908   41.9127    8.0787 C.3     1  UNL1        0.1569
      9 C           5.8608   41.9778    9.0941 C.3     1  UNL1        0.1395
     10 C           5.1318   43.3302    9.0022 C.3     1  UNL1        0.0317
     11 C           3.6118   43.1584    9.0612 C.3     1  UNL1        0.0051
     12 C           3.2045   42.0845   10.0732 C.3     1  UNL1        0.0322
     13 C           4.1388   40.8647   10.0156 C.3     1  UNL1        0.1421
     14 O           4.9738   40.9065    8.8837 O.3     1  UNL1       -0.3542
     15 S          12.5866   41.1230    7.8370 S.O2    1  UNL1        0.0737
     16 O          11.9545   41.7569    6.6297 O.2     1  UNL1       -0.1499
     17 O          12.5097   39.6260    7.7314 O.2     1  UNL1       -0.1499
     18 F          18.2513   42.7675    8.1981 F       1  UNL1       -0.2033
     19 C          16.9505   42.3963    8.1070 C.ar    1  UNL1        0.1507
     20 C          16.0785   43.0633    7.2354 C.ar    1  UNL1        0.0864
     21 C          14.7397   42.6690    7.1529 C.ar    1  UNL1        0.0338
     22 C          14.2684   41.6094    7.9353 C.ar    1  UNL1        0.1262
     23 C          15.1395   40.9472    8.8069 C.ar    1  UNL1        0.0225
     24 C          16.4785   41.3396    8.8916 C.ar    1  UNL1        0.0319
     25 CL         16.6469   44.3925    6.2434 Cl      1  UNL1       -0.0799
@<TRIPOS>BOND
     1    19    18    1
     2    20    25    1
     3    20    21   ar
     4    22    23   ar
     5    24    19   ar
     6     4     6   ar
     7     8     6    1
     8     9     8    1
     9     9    10    1
    10     9    14    1
    11    10    11    1
    12    11    12    1
    13    12    13    1
    14    13    14    1
    15     5     3   ar
    16    15    22    1
    17    15     1    1
    18     1     3    1
    19     6     7   ar
    20    19    20   ar
    21    21    22   ar
    22    23    24   ar
    23     3     4   ar
    24     5     7   ar
    25    15    16    2
    26    15    17    2
    27     1     2    1
@<TRIPOS>MOLECULE
MolPort-039-210-479 CSSS03437018559 MCULE-2838403596 PubChem-119099794
 25 27 0 0 0
SMALL
GASTEIGER

@<TRIPOS>ATOM
      1 N          11.2418   42.1424    8.1296 N.pl3   1  UNL1       -0.2119
      2 H          11.5893   42.8650    8.7008 H       1  UNL1        0.1738
      3 C           9.8443   41.8533    8.1629 C.ar    1  UNL1        0.1043
      4 C           9.0456   41.9268    9.2804 C.ar    1  UNL1        0.1125
      5 C           9.0573   41.4505    7.1004 C.ar    1  UNL1        0.1375
      6 N           7.8147   41.5757    8.8686 N.ar    1  UNL1       -0.2456
      7 N           7.8074   41.2868    7.5763 N.ar    1  UNL1       -0.1662
      8 C           6.6413   41.4888    9.7230 C.3     1  UNL1        0.1569
      9 C           5.7346   42.6901    9.5068 C.3     1  UNL1        0.1395
     10 C           6.4592   43.7701    8.6835 C.3     1  UNL1        0.0317
     11 C           5.5513   44.3604    7.6016 C.3     1  UNL1        0.0051
     12 C           4.1199   44.5518    8.1093 C.3     1  UNL1        0.0322
     13 C           3.6583   43.3650    8.9710 C.3     1  UNL1        0.1421
     14 O           4.5478   42.2789    8.8735 O.3     1  UNL1       -0.3542
     15 S          12.3496   41.2710    7.1231 S.O2    1  UNL1        0.0737
     16 O          11.7404   41.0896    5.7611 O.2     1  UNL1       -0.1499
     17 O          12.6462   39.9315    7.7363 O.2     1  UNL1       -0.1499
     18 F          17.3772   44.3323    6.5988 F       1  UNL1       -0.2033
     19 C          16.2274   43.6256    6.7277 C.ar    1  UNL1        0.1507
     20 C          16.1264   42.5952    7.6727 C.ar    1  UNL1        0.0864
     21 C          14.9341   41.8753    7.7935 C.ar    1  UNL1        0.0338
     22 C          13.8408   42.1817    6.9762 C.ar    1  UNL1        0.1262
     23 C          13.9447   43.2082    6.0315 C.ar    1  UNL1        0.0225
     24 C          15.1358   43.9294    5.9084 C.ar    1  UNL1        0.0319
     25 CL         17.4824   42.1947    8.7095 Cl      1  UNL1       -0.0799
@<TRIPOS>BOND
     1    19    18    1
     2    20    25    1
     3    20    21   ar
     4    22    23   ar
     5    24    19   ar
     6     4     6   ar
     7     8     6    1
     8     9     8    1
     9     9    10    1
    10     9    14    1
    11    10    11    1
    12    11    12    1
    13    12    13    1
    14    13    14    1
    15     5     3   ar
    16    15    22    1
    17    15     1    1
    18     1     3    1
    19     6     7   ar
    20    19    20   ar
    21    21    22   ar
    22    23    24   ar
    23     3     4   ar
    24     5     7   ar
    25    15    16    2
    26    15    17    2
    27     1     2    1
