@<TRIPOS>MOLECULE
MolPort-002-774-665 36613764 CHEMBL4969407 CSSS00132998851 MCULE-8260149572 PubChem-19590890 ZINC000036613764 ZINC36613764
 23 25 0 0 0
SMALL
GASTEIGER

@<TRIPOS>ATOM
      1 C          12.8769   42.0616    6.8250 C.2     1  UNL1        0.2701
      2 N          13.1223   40.9411    7.6851 N.am    1  UNL1       -0.2631
      3 O          11.7531   42.2198    6.2767 O.2     1  UNL1       -0.2681
      4 H          14.0189   40.8696    8.0853 H       1  UNL1        0.1567
      5 C          12.1765   39.9168    8.0126 C.ar    1  UNL1        0.1553
      6 C          12.2911   39.0000    9.0516 C.ar    1  UNL1        0.0505
      7 C          11.1325   38.2587    8.9166 C.ar    1  UNL1        0.0588
      8 C          10.7406   37.1158    9.7887 C.3     1  UNL1        0.0518
      9 N          10.4083   38.7196    7.8809 N.ar    1  UNL1       -0.2537
     10 N          11.0395   39.7326    7.3160 N.ar    1  UNL1       -0.1543
     11 C           9.1381   38.1876    7.4096 C.3     1  UNL1        0.1271
     12 C           8.7285   38.8802    6.1203 C.3     1  UNL1        0.0263
     13 C           6.3718   39.6791    6.2679 C.3     1  UNL1        0.0001
     14 C           7.8307   40.0673    6.4187 C.3     1  UNL1        0.0021
     15 C          13.9453   43.0365    6.5788 C.ar    1  UNL1        0.1552
     16 C          15.8403   44.0545    6.4808 C.ar    1  UNL1        0.0529
     17 C          15.2721   42.8784    6.9371 C.ar    1  UNL1        0.0395
     18 N          13.7498   44.2217    5.9716 N.ar    1  UNL1       -0.1683
     19 N          14.9115   44.8493    5.9170 N.ar    1  UNL1       -0.2797
     20 H          15.0698   45.7414    5.5317 H       1  UNL1        0.1886
     21 C          17.2730   44.4426    6.6546 C.3     1  UNL1        0.0397
     22 C          18.1298   43.2018    6.8296 C.3     1  UNL1        0.0063
     23 C          17.7554   44.0340    8.0348 C.3     1  UNL1        0.0063
@<TRIPOS>BOND
     1    13    14    1
     2    14    12    1
     3    12    11    1
     4    11     9    1
     5     5     2    1
     6     5     6   ar
     7     1    15    1
     8    17    15   ar
     9    21    16    1
    10    21    22    1
    11    22    23    1
    12    23    21    1
    13     7     9   ar
    14     8     7    1
    15     9    10   ar
    16     2     1   am
    17    19    18   ar
    18    19    16   ar
    19     5    10   ar
    20     1     3    2
    21    15    18   ar
    22    16    17   ar
    23     6     7   ar
    24     2     4    1
    25    19    20    1
@<TRIPOS>MOLECULE
MolPort-002-774-665 36613764 CHEMBL4969407 CSSS00132998851 MCULE-8260149572 PubChem-19590890 ZINC000036613764 ZINC36613764
 23 25 0 0 0
SMALL
GASTEIGER

@<TRIPOS>ATOM
      1 C          12.7079   42.1029    6.5924 C.2     1  UNL1        0.2701
      2 N          12.9650   40.9876    7.4557 N.am    1  UNL1       -0.2631
      3 O          11.5871   42.2401    6.0323 O.2     1  UNL1       -0.2681
      4 H          13.8586   40.9329    7.8653 H       1  UNL1        0.1567
      5 C          12.0350   39.9462    7.7742 C.ar    1  UNL1        0.1553
      6 C          10.8612   39.6596    7.0862 C.ar    1  UNL1        0.0505
      7 C          10.3576   38.5888    7.8004 C.ar    1  UNL1        0.0588
      8 C           9.0866   37.8751    7.4914 C.3     1  UNL1        0.0518
      9 N          11.1834   38.2839    8.8176 N.ar    1  UNL1       -0.2537
     10 N          12.2125   39.1112    8.8151 N.ar    1  UNL1       -0.1543
     11 C          10.9871   37.2325    9.8048 C.3     1  UNL1        0.1271
     12 C          12.3179   36.8498   10.4312 C.3     1  UNL1        0.0263
     13 C          14.3139   35.7912    9.3779 C.3     1  UNL1        0.0001
     14 C          12.8657   35.5909    9.7836 C.3     1  UNL1        0.0021
     15 C          13.7605   43.0973    6.3566 C.ar    1  UNL1        0.1552
     16 C          15.6198   44.1836    6.3403 C.ar    1  UNL1        0.0529
     17 C          15.0515   43.0294    6.8495 C.ar    1  UNL1        0.0395
     18 N          13.5835   44.2140    5.6263 N.ar    1  UNL1       -0.1683
     19 N          14.7225   44.8839    5.6214 N.ar    1  UNL1       -0.2797
     20 H          14.8862   45.7440    5.1712 H       1  UNL1        0.1886
     21 C          17.0148   44.6474    6.6093 C.3     1  UNL1        0.0397
     22 C          18.0085   43.5872    6.1702 C.3     1  UNL1        0.0063
     23 C          17.6717   43.7421    7.6357 C.3     1  UNL1        0.0063
@<TRIPOS>BOND
     1    13    14    1
     2    14    12    1
     3    12    11    1
     4    11     9    1
     5     5     2    1
     6     5     6   ar
     7     1    15    1
     8    17    15   ar
     9    21    16    1
    10    21    22    1
    11    22    23    1
    12    23    21    1
    13     7     9   ar
    14     8     7    1
    15     9    10   ar
    16     2     1   am
    17    19    18   ar
    18    19    16   ar
    19     5    10   ar
    20     1     3    2
    21    15    18   ar
    22    16    17   ar
    23     6     7   ar
    24     2     4    1
    25    19    20    1
@<TRIPOS>MOLECULE
MolPort-002-774-665 36613764 CHEMBL4969407 CSSS00132998851 MCULE-8260149572 PubChem-19590890 ZINC000036613764 ZINC36613764
 23 25 0 0 0
SMALL
GASTEIGER

@<TRIPOS>ATOM
      1 C          12.6275   42.6721    6.9547 C.2     1  UNL1        0.2701
      2 N          12.1341   42.9260    8.2767 N.am    1  UNL1       -0.2631
      3 O          11.9875   41.9342    6.1582 O.2     1  UNL1       -0.2681
      4 H          12.6766   43.5101    8.8544 H       1  UNL1        0.1567
      5 C          10.9208   42.4038    8.8299 C.ar    1  UNL1        0.1553
      6 C          10.6295   42.2716   10.1829 C.ar    1  UNL1        0.0505
      7 C           9.3600   41.7259   10.1568 C.ar    1  UNL1        0.0588
      8 C           8.5560   41.3699   11.3598 C.3     1  UNL1        0.0518
      9 N           8.9546   41.5621    8.8846 N.ar    1  UNL1       -0.2537
     10 N           9.9039   41.9695    8.0621 N.ar    1  UNL1       -0.1543
     11 C           7.6864   40.9974    8.4474 C.3     1  UNL1        0.1271
     12 C           7.7467   40.6642    6.9658 C.3     1  UNL1        0.0263
     13 C           9.1915   39.1298    5.6346 C.3     1  UNL1        0.0001
     14 C           8.1828   39.2243    6.7639 C.3     1  UNL1        0.0021
     15 C          13.8921   43.2772    6.5222 C.ar    1  UNL1        0.1552
     16 C          15.9729   43.7618    6.2529 C.ar    1  UNL1        0.0529
     17 C          15.1505   42.8986    6.9549 C.ar    1  UNL1        0.0395
     18 N          13.9720   44.2944    5.6444 N.ar    1  UNL1       -0.1683
     19 N          15.2485   44.5961    5.4837 N.ar    1  UNL1       -0.2797
     20 H          15.6068   45.3062    4.9036 H       1  UNL1        0.1886
     21 C          17.4605   43.8283    6.3805 C.3     1  UNL1        0.0397
     22 C          17.9534   42.7210    7.2944 C.3     1  UNL1        0.0063
     23 C          17.8428   44.1351    7.8173 C.3     1  UNL1        0.0063
@<TRIPOS>BOND
     1    13    14    1
     2    14    12    1
     3    12    11    1
     4    11     9    1
     5     5     2    1
     6     5     6   ar
     7     1    15    1
     8    17    15   ar
     9    21    16    1
    10    21    22    1
    11    22    23    1
    12    23    21    1
    13     7     9   ar
    14     8     7    1
    15     9    10   ar
    16     2     1   am
    17    19    18   ar
    18    19    16   ar
    19     5    10   ar
    20     1     3    2
    21    15    18   ar
    22    16    17   ar
    23     6     7   ar
    24     2     4    1
    25    19    20    1
@<TRIPOS>MOLECULE
MolPort-002-774-665 36613764 CHEMBL4969407 CSSS00132998851 MCULE-8260149572 PubChem-19590890 ZINC000036613764 ZINC36613764
 23 25 0 0 0
SMALL
GASTEIGER

@<TRIPOS>ATOM
      1 C          11.9853   41.9462    6.5649 C.2     1  UNL1        0.2701
      2 N          10.9536   42.1208    7.5450 N.am    1  UNL1       -0.2631
      3 O          11.7576   41.3242    5.4926 O.2     1  UNL1       -0.2681
      4 H          11.1897   42.6152    8.3629 H       1  UNL1        0.1567
      5 C           9.6094   41.6386    7.4376 C.ar    1  UNL1        0.1553
      6 C           9.1981   40.5140    6.7311 C.ar    1  UNL1        0.0505
      7 C           7.8342   40.5110    6.9542 C.ar    1  UNL1        0.0588
      8 C           6.8800   39.5027    6.4128 C.3     1  UNL1        0.0518
      9 N           7.4921   41.5533    7.7329 N.ar    1  UNL1       -0.2537
     10 N           8.5704   42.2544    8.0320 N.ar    1  UNL1       -0.1543
     11 C           6.1482   41.9012    8.1701 C.3     1  UNL1        0.1271
     12 C           5.8822   41.3229    9.5502 C.3     1  UNL1        0.0263
     13 C           4.1422   40.4174   11.0885 C.3     1  UNL1        0.0001
     14 C           4.4197   40.9421    9.6923 C.3     1  UNL1        0.0021
     15 C          13.3225   42.4971    6.8113 C.ar    1  UNL1        0.1552
     16 C          15.3813   42.7641    7.3833 C.ar    1  UNL1        0.0529
     17 C          14.3770   41.8124    7.3886 C.ar    1  UNL1        0.0395
     18 N          13.6792   43.7583    6.5047 N.ar    1  UNL1       -0.1683
     19 N          14.9408   43.9243    6.8615 N.ar    1  UNL1       -0.2797
     20 H          15.4661   44.7510    6.7629 H       1  UNL1        0.1886
     21 C          16.7508   42.5737    7.9507 C.3     1  UNL1        0.0397
     22 C          17.3508   43.9179    8.3216 C.3     1  UNL1        0.0063
     23 C          17.7803   43.2280    7.0469 C.3     1  UNL1        0.0063
@<TRIPOS>BOND
     1    13    14    1
     2    14    12    1
     3    12    11    1
     4    11     9    1
     5     5     2    1
     6     5     6   ar
     7     1    15    1
     8    17    15   ar
     9    21    16    1
    10    21    22    1
    11    22    23    1
    12    23    21    1
    13     7     9   ar
    14     8     7    1
    15     9    10   ar
    16     2     1   am
    17    19    18   ar
    18    19    16   ar
    19     5    10   ar
    20     1     3    2
    21    15    18   ar
    22    16    17   ar
    23     6     7   ar
    24     2     4    1
    25    19    20    1
@<TRIPOS>MOLECULE
MolPort-002-774-665 36613764 CHEMBL4969407 CSSS00132998851 MCULE-8260149572 PubChem-19590890 ZINC000036613764 ZINC36613764
 23 25 0 0 0
SMALL
GASTEIGER

@<TRIPOS>ATOM
      1 C          12.3389   42.2122    7.9301 C.2     1  UNL1        0.2701
      2 N          11.6245   42.8445    9.0003 N.am    1  UNL1       -0.2631
      3 O          11.8928   41.1664    7.3861 O.2     1  UNL1       -0.2681
      4 H          12.0213   43.6586    9.3863 H       1  UNL1        0.1567
      5 C          10.3838   42.3947    9.5566 C.ar    1  UNL1        0.1553
      6 C          10.1125   42.2107   10.9077 C.ar    1  UNL1        0.0505
      7 C           8.8010   41.7750   10.8860 C.ar    1  UNL1        0.0588
      8 C           7.9967   41.4196   12.0889 C.3     1  UNL1        0.0518
      9 N           8.3551   41.7182    9.6181 N.ar    1  UNL1       -0.2537
     10 N           9.3169   42.0911    8.7939 N.ar    1  UNL1       -0.1543
     11 C           7.0341   41.2870    9.1850 C.3     1  UNL1        0.1271
     12 C           6.0016   42.3503    9.5217 C.3     1  UNL1        0.0263
     13 C           3.5157   42.4654    9.3776 C.3     1  UNL1        0.0001
     14 C           4.6966   41.7046    9.9507 C.3     1  UNL1        0.0021
     15 C          13.6044   42.7877    7.4613 C.ar    1  UNL1        0.1552
     16 C          15.6837   43.1563    7.0398 C.ar    1  UNL1        0.0529
     17 C          14.8594   42.2482    7.6802 C.ar    1  UNL1        0.0395
     18 N          13.6897   43.9324    6.7583 N.ar    1  UNL1       -0.1683
     19 N          14.9662   44.1621    6.5050 N.ar    1  UNL1       -0.2797
     20 H          15.3287   44.9332    6.0118 H       1  UNL1        0.1886
     21 C          17.1764   43.0897    7.0065 C.3     1  UNL1        0.0397
     22 C          17.6901   42.3396    8.2221 C.3     1  UNL1        0.0063
     23 C          17.7542   43.8495    8.1868 C.3     1  UNL1        0.0063
@<TRIPOS>BOND
     1    13    14    1
     2    14    12    1
     3    12    11    1
     4    11     9    1
     5     5     2    1
     6     5     6   ar
     7     1    15    1
     8    17    15   ar
     9    21    16    1
    10    21    22    1
    11    22    23    1
    12    23    21    1
    13     7     9   ar
    14     8     7    1
    15     9    10   ar
    16     2     1   am
    17    19    18   ar
    18    19    16   ar
    19     5    10   ar
    20     1     3    2
    21    15    18   ar
    22    16    17   ar
    23     6     7   ar
    24     2     4    1
    25    19    20    1
@<TRIPOS>MOLECULE
MolPort-002-774-665 36613764 CHEMBL4969407 CSSS00132998851 MCULE-8260149572 PubChem-19590890 ZINC000036613764 ZINC36613764
 23 25 0 0 0
SMALL
GASTEIGER

@<TRIPOS>ATOM
      1 C          12.9061   42.6263    7.0287 C.2     1  UNL1        0.2701
      2 N          12.9243   42.2877    8.4217 N.am    1  UNL1       -0.2631
      3 O          11.9322   42.2999    6.2983 O.2     1  UNL1       -0.2681
      4 H          13.7111   42.5689    8.9424 H       1  UNL1        0.1567
      5 C          11.8973   41.5761    9.1216 C.ar    1  UNL1        0.1553
      6 C          10.8936   42.1433    9.8987 C.ar    1  UNL1        0.0505
      7 C          10.1954   41.0319   10.3316 C.ar    1  UNL1        0.0588
      8 C           8.9978   41.0643   11.2175 C.3     1  UNL1        0.0518
      9 N          10.7556   39.9137    9.8359 N.ar    1  UNL1       -0.2537
     10 N          11.8019   40.2336    9.0967 N.ar    1  UNL1       -0.1543
     11 C          10.3205   38.5468   10.0820 C.3     1  UNL1        0.1271
     12 C          11.1350   37.5800    9.2383 C.3     1  UNL1        0.0263
     13 C          11.8037   35.7400   10.7814 C.3     1  UNL1        0.0001
     14 C          12.2689   36.9888   10.0560 C.3     1  UNL1        0.0021
     15 C          14.0336   43.3612    6.4447 C.ar    1  UNL1        0.1552
     16 C          15.9999   44.0488    5.8987 C.ar    1  UNL1        0.0529
     17 C          15.3709   43.0911    6.6743 C.ar    1  UNL1        0.0395
     18 N          13.8916   44.4069    5.6092 N.ar    1  UNL1       -0.1683
     19 N          15.0981   44.8330    5.2790 N.ar    1  UNL1       -0.2797
     20 H          15.3017   45.5908    4.6844 H       1  UNL1        0.1886
     21 C          17.4781   44.2523    5.8130 C.3     1  UNL1        0.0397
     22 C          18.2026   43.0157    6.3132 C.3     1  UNL1        0.0063
     23 C          18.0844   44.2310    7.2045 C.3     1  UNL1        0.0063
@<TRIPOS>BOND
     1    13    14    1
     2    14    12    1
     3    12    11    1
     4    11     9    1
     5     5     2    1
     6     5     6   ar
     7     1    15    1
     8    17    15   ar
     9    21    16    1
    10    21    22    1
    11    22    23    1
    12    23    21    1
    13     7     9   ar
    14     8     7    1
    15     9    10   ar
    16     2     1   am
    17    19    18   ar
    18    19    16   ar
    19     5    10   ar
    20     1     3    2
    21    15    18   ar
    22    16    17   ar
    23     6     7   ar
    24     2     4    1
    25    19    20    1
@<TRIPOS>MOLECULE
MolPort-002-774-665 36613764 CHEMBL4969407 CSSS00132998851 MCULE-8260149572 PubChem-19590890 ZINC000036613764 ZINC36613764
 23 25 0 0 0
SMALL
GASTEIGER

@<TRIPOS>ATOM
      1 C           6.7885   42.9642    7.3117 C.2     1  UNL1        0.2701
      2 N           7.6937   41.8901    7.5984 N.am    1  UNL1       -0.2631
      3 O           7.0608   43.8181    6.4256 O.2     1  UNL1       -0.2681
      4 H           7.4278   41.2534    8.3007 H       1  UNL1        0.1567
      5 C           8.9513   41.6627    6.9519 C.ar    1  UNL1        0.1553
      6 C          10.1970   42.0610    7.4237 C.ar    1  UNL1        0.0505
      7 C          11.0453   41.6005    6.4345 C.ar    1  UNL1        0.0588
      8 C          12.5264   41.7638    6.4321 C.3     1  UNL1        0.0518
      9 N          10.3380   40.9821    5.4717 N.ar    1  UNL1       -0.2537
     10 N           9.0533   41.0176    5.7748 N.ar    1  UNL1       -0.1543
     11 C          10.8710   40.3842    4.2565 C.3     1  UNL1        0.1271
     12 C          11.1550   38.9082    4.4823 C.3     1  UNL1        0.0263
     13 C           9.1886   38.5667    2.9888 C.3     1  UNL1        0.0001
     14 C          10.5792   38.0785    3.3490 C.3     1  UNL1        0.0021
     15 C           5.5298   43.0725    8.0577 C.ar    1  UNL1        0.1552
     16 C           3.8769   42.7313    9.3950 C.ar    1  UNL1        0.0529
     17 C           5.0800   42.1702    9.0051 C.ar    1  UNL1        0.0395
     18 N           4.6493   44.0776    7.8957 N.ar    1  UNL1       -0.1683
     19 N           3.6319   43.8651    8.7118 N.ar    1  UNL1       -0.2797
     20 H           2.8349   44.4356    8.8039 H       1  UNL1        0.1886
     21 C           2.9262   42.1313   10.3799 C.3     1  UNL1        0.0397
     22 C           3.6593   41.7804   11.6620 C.3     1  UNL1        0.0063
     23 C           3.3192   40.6936   10.6679 C.3     1  UNL1        0.0063
@<TRIPOS>BOND
     1    13    14    1
     2    14    12    1
     3    12    11    1
     4    11     9    1
     5     5     2    1
     6     5     6   ar
     7     1    15    1
     8    17    15   ar
     9    21    16    1
    10    21    22    1
    11    22    23    1
    12    23    21    1
    13     7     9   ar
    14     8     7    1
    15     9    10   ar
    16     2     1   am
    17    19    18   ar
    18    19    16   ar
    19     5    10   ar
    20     1     3    2
    21    15    18   ar
    22    16    17   ar
    23     6     7   ar
    24     2     4    1
    25    19    20    1
@<TRIPOS>MOLECULE
MolPort-002-774-665 36613764 CHEMBL4969407 CSSS00132998851 MCULE-8260149572 PubChem-19590890 ZINC000036613764 ZINC36613764
 23 25 0 0 0
SMALL
GASTEIGER

@<TRIPOS>ATOM
      1 C           8.5991   41.6784    8.9289 C.2     1  UNL1        0.2701
      2 N           9.5319   40.6450    8.5862 N.am    1  UNL1       -0.2631
      3 O           9.0016   42.8187    9.2842 O.2     1  UNL1       -0.2681
      4 H           9.1592   39.7747    8.3160 H       1  UNL1        0.1567
      5 C          10.9585   40.7687    8.6026 C.ar    1  UNL1        0.1553
      6 C          11.7315   41.4454    7.6658 C.ar    1  UNL1        0.0505
      7 C          13.0120   41.2518    8.1483 C.ar    1  UNL1        0.0588
      8 C          14.2547   41.7728    7.5124 C.3     1  UNL1        0.0518
      9 N          12.9736   40.5227    9.2782 N.ar    1  UNL1       -0.2537
     10 N          11.7214   40.2166    9.5645 N.ar    1  UNL1       -0.1543
     11 C          14.1174   40.0934   10.0692 C.3     1  UNL1        0.1271
     12 C          13.6485   39.2919   11.2724 C.3     1  UNL1        0.0263
     13 C          16.0858   38.7822   11.1550 C.3     1  UNL1        0.0001
     14 C          14.8360   38.7019   12.0113 C.3     1  UNL1        0.0021
     15 C           7.1586   41.4072    8.8663 C.ar    1  UNL1        0.1552
     16 C           5.0681   41.1893    9.3344 C.ar    1  UNL1        0.0529
     17 C           6.2669   41.5684    9.9117 C.ar    1  UNL1        0.0395
     18 N           6.5307   40.9544    7.7651 N.ar    1  UNL1       -0.1683
     19 N           5.2488   40.8146    8.0541 N.ar    1  UNL1       -0.2797
     20 H           4.5490   40.4929    7.4408 H       1  UNL1        0.1886
     21 C           3.7545   41.1204   10.0441 C.3     1  UNL1        0.0397
     22 C           3.9083   41.6158   11.4707 C.3     1  UNL1        0.0063
     23 C           3.8390   40.1315   11.1928 C.3     1  UNL1        0.0063
@<TRIPOS>BOND
     1    13    14    1
     2    14    12    1
     3    12    11    1
     4    11     9    1
     5     5     2    1
     6     5     6   ar
     7     1    15    1
     8    17    15   ar
     9    21    16    1
    10    21    22    1
    11    22    23    1
    12    23    21    1
    13     7     9   ar
    14     8     7    1
    15     9    10   ar
    16     2     1   am
    17    19    18   ar
    18    19    16   ar
    19     5    10   ar
    20     1     3    2
    21    15    18   ar
    22    16    17   ar
    23     6     7   ar
    24     2     4    1
    25    19    20    1
@<TRIPOS>MOLECULE
MolPort-002-774-665 36613764 CHEMBL4969407 CSSS00132998851 MCULE-8260149572 PubChem-19590890 ZINC000036613764 ZINC36613764
 23 25 0 0 0
SMALL
GASTEIGER

@<TRIPOS>ATOM
      1 C           8.8320   40.9861    8.4873 C.2     1  UNL1        0.2701
      2 N           9.6102   40.6917    9.6548 N.am    1  UNL1       -0.2631
      3 O           9.3860   41.1469    7.3666 O.2     1  UNL1       -0.2681
      4 H           9.1229   40.5764   10.5024 H       1  UNL1        0.1567
      5 C          11.0348   40.5508    9.6953 C.ar    1  UNL1        0.1553
      6 C          11.7639   39.8949   10.6808 C.ar    1  UNL1        0.0505
      7 C          13.0637   40.0582   10.2404 C.ar    1  UNL1        0.0588
      8 C          14.2754   39.5428   10.9380 C.3     1  UNL1        0.0518
      9 N          13.0763   40.7518    9.0879 N.ar    1  UNL1       -0.2537
     10 N          11.8396   41.0634    8.7458 N.ar    1  UNL1       -0.1543
     11 C          14.2540   41.1424    8.3270 C.3     1  UNL1        0.1271
     12 C          13.8485   42.0092    7.1462 C.3     1  UNL1        0.0263
     13 C          14.5632   43.8348    5.6067 C.3     1  UNL1        0.0001
     14 C          14.9804   42.9451    6.7626 C.3     1  UNL1        0.0021
     15 C           7.3736   41.1021    8.5962 C.ar    1  UNL1        0.1552
     16 C           5.3712   41.5001    9.2812 C.ar    1  UNL1        0.0529
     17 C           6.6895   41.6081    9.6871 C.ar    1  UNL1        0.0395
     18 N           6.5190   40.7144    7.6312 N.ar    1  UNL1       -0.1683
     19 N           5.2899   40.9527    8.0539 N.ar    1  UNL1       -0.2797
     20 H           4.4605   40.7633    7.5585 H       1  UNL1        0.1886
     21 C           4.1823   41.8608   10.1119 C.3     1  UNL1        0.0397
     22 C           3.8587   40.7317   11.0735 C.3     1  UNL1        0.0063
     23 C           3.0374   40.9086    9.8168 C.3     1  UNL1        0.0063
@<TRIPOS>BOND
     1    13    14    1
     2    14    12    1
     3    12    11    1
     4    11     9    1
     5     5     2    1
     6     5     6   ar
     7     1    15    1
     8    17    15   ar
     9    21    16    1
    10    21    22    1
    11    22    23    1
    12    23    21    1
    13     7     9   ar
    14     8     7    1
    15     9    10   ar
    16     2     1   am
    17    19    18   ar
    18    19    16   ar
    19     5    10   ar
    20     1     3    2
    21    15    18   ar
    22    16    17   ar
    23     6     7   ar
    24     2     4    1
    25    19    20    1
@<TRIPOS>MOLECULE
MolPort-002-774-665 36613764 CHEMBL4969407 CSSS00132998851 MCULE-8260149572 PubChem-19590890 ZINC000036613764 ZINC36613764
 23 25 0 0 0
SMALL
GASTEIGER

@<TRIPOS>ATOM
      1 C          10.2982   42.8006    9.3873 C.2     1  UNL1        0.2701
      2 N          11.0046   41.9562    8.4689 N.am    1  UNL1       -0.2631
      3 O          10.9196   43.6054   10.1322 O.2     1  UNL1       -0.2681
      4 H          10.4663   41.3478    7.9127 H       1  UNL1        0.1567
      5 C          12.4250   41.9209    8.2902 C.ar    1  UNL1        0.1553
      6 C          13.1545   42.6828    7.3844 C.ar    1  UNL1        0.0505
      7 C          14.4489   42.2617    7.6236 C.ar    1  UNL1        0.0588
      8 C          15.6579   42.7622    6.9107 C.3     1  UNL1        0.0518
      9 N          14.4590   41.3320    8.5958 N.ar    1  UNL1       -0.2537
     10 N          13.2246   41.1111    9.0093 N.ar    1  UNL1       -0.1543
     11 C          15.6274   40.6350    9.1131 C.3     1  UNL1        0.1271
     12 C          15.1950   39.4577    9.9717 C.3     1  UNL1        0.0263
     13 C          17.6242   39.2723   10.4995 C.3     1  UNL1        0.0001
     14 C          16.2174   39.1935   11.0621 C.3     1  UNL1        0.0021
     15 C           8.8348   42.7283    9.4628 C.ar    1  UNL1        0.1552
     16 C           6.7327   42.7267    8.9958 C.ar    1  UNL1        0.0529
     17 C           7.9686   42.8938    8.3968 C.ar    1  UNL1        0.0395
     18 N           8.1559   42.4963   10.6016 N.ar    1  UNL1       -0.1683
     19 N           6.8656   42.5015   10.3164 N.ar    1  UNL1       -0.2797
     20 H           6.1307   42.3648   10.9571 H       1  UNL1        0.1886
     21 C           5.4152   42.8567    8.3023 C.3     1  UNL1        0.0397
     22 C           5.0578   44.3227    8.1366 C.3     1  UNL1        0.0063
     23 C           4.4049   43.5078    9.2297 C.3     1  UNL1        0.0063
@<TRIPOS>BOND
     1    13    14    1
     2    14    12    1
     3    12    11    1
     4    11     9    1
     5     5     2    1
     6     5     6   ar
     7     1    15    1
     8    17    15   ar
     9    21    16    1
    10    21    22    1
    11    22    23    1
    12    23    21    1
    13     7     9   ar
    14     8     7    1
    15     9    10   ar
    16     2     1   am
    17    19    18   ar
    18    19    16   ar
    19     5    10   ar
    20     1     3    2
    21    15    18   ar
    22    16    17   ar
    23     6     7   ar
    24     2     4    1
    25    19    20    1
