@<TRIPOS>MOLECULE
MolPort-019-766-990 CSSS09431944226 PubChem-851890 ZINC000000386788 ZINC00386788
 21 22 0 0 0
SMALL
GASTEIGER

@<TRIPOS>ATOM
      1 C          11.8123   41.0832    6.4501 C.ar    1  UNL1        0.1678
      2 C          10.4092   39.4230    7.0041 C.ar    1  UNL1        0.0704
      3 C           9.1829   38.5892    6.8576 C.3     1  UNL1        0.0528
      4 C          11.3948   39.2052    7.9762 C.ar    1  UNL1        0.0845
      5 N          10.6501   40.4606    6.1585 N.ar    1  UNL1       -0.2281
      6 S          12.5876   40.3818    7.7609 S.2     1  UNL1       -0.0484
      7 C          13.2335   43.1789    6.2674 C.2     1  UNL1        0.4068
      8 O          13.6476   43.0860    7.4557 O.2     1  UNL1       -0.2260
      9 N          12.3232   42.2119    5.7343 N.am    1  UNL1       -0.2298
     10 H          12.0256   42.3325    4.8036 H       1  UNL1        0.1601
     11 O          13.6527   44.2338    5.4529 O.3     1  UNL1       -0.4344
     12 C          15.8755   44.8792    6.1438 C.3     1  UNL1        0.0513
     13 C          14.9981   44.3764    5.0119 C.3     1  UNL1        0.2102
     14 C          11.3640   38.1874    9.0552 C.2     1  UNL1        0.2027
     15 O          10.3689   37.4164    9.1319 O.2     1  UNL1       -0.2860
     16 C          12.4493   38.0448   10.0539 C.ar    1  UNL1        0.0395
     17 C          12.8764   39.1319   10.8322 C.ar    1  UNL1        0.0032
     18 C          13.9201   38.9838   11.7502 C.ar    1  UNL1        0.0001
     19 C          14.5536   37.7472   11.8936 C.ar    1  UNL1        0.0000
     20 C          14.1454   36.6604   11.1168 C.ar    1  UNL1        0.0001
     21 C          13.1014   36.8102   10.1993 C.ar    1  UNL1        0.0032
@<TRIPOS>BOND
     1    12    13    1
     2    13    11    1
     3     7    11    1
     4     7     9   am
     5     1     6   ar
     6     2     5   ar
     7     3     2    1
     8     4     6   ar
     9     4    14    1
    10    14    16    1
    11    17    18   ar
    12    19    20   ar
    13    21    16   ar
    14     9     1    1
    15     7     8    2
    16     1     5   ar
    17     2     4   ar
    18    14    15    2
    19    16    17   ar
    20    18    19   ar
    21    20    21   ar
    22     9    10    1
@<TRIPOS>MOLECULE
MolPort-019-766-990 CSSS09431944226 PubChem-851890 ZINC000000386788 ZINC00386788
 21 22 0 0 0
SMALL
GASTEIGER

@<TRIPOS>ATOM
      1 C          13.0578   41.9742    7.2949 C.ar    1  UNL1        0.1678
      2 C          11.5494   41.4741    8.8783 C.ar    1  UNL1        0.0704
      3 C          11.0933   41.2246   10.2747 C.3     1  UNL1        0.0528
      4 C          10.7059   41.4424    7.7596 C.ar    1  UNL1        0.0845
      5 N          12.8490   41.7756    8.6142 N.ar    1  UNL1       -0.2281
      6 S          11.6512   41.7849    6.4022 S.2     1  UNL1       -0.0484
      7 C          14.6257   43.5148    6.0250 C.2     1  UNL1        0.4068
      8 O          13.7411   44.4010    5.8687 O.2     1  UNL1       -0.2260
      9 N          14.3269   42.3003    6.7203 N.am    1  UNL1       -0.2298
     10 H          15.0501   41.6384    6.8103 H       1  UNL1        0.1601
     11 O          15.9125   43.7024    5.5142 O.3     1  UNL1       -0.4344
     12 C          17.7655   43.6216    7.0619 C.3     1  UNL1        0.0513
     13 C          16.8940   44.4926    6.1755 C.3     1  UNL1        0.2102
     14 C           9.2653   41.0879    7.7473 C.2     1  UNL1        0.2027
     15 O           8.9405   39.8715    7.8217 O.2     1  UNL1       -0.2860
     16 C           8.1909   42.1029    7.6413 C.ar    1  UNL1        0.0395
     17 C           7.5517   42.3684    6.4201 C.ar    1  UNL1        0.0032
     18 C           6.5588   43.3486    6.3347 C.ar    1  UNL1        0.0001
     19 C           6.2002   44.0798    7.4695 C.ar    1  UNL1        0.0000
     20 C           6.8367   43.8329    8.6881 C.ar    1  UNL1        0.0001
     21 C           7.8293   42.8522    8.7718 C.ar    1  UNL1        0.0032
@<TRIPOS>BOND
     1    12    13    1
     2    13    11    1
     3     7    11    1
     4     7     9   am
     5     1     6   ar
     6     2     5   ar
     7     3     2    1
     8     4     6   ar
     9     4    14    1
    10    14    16    1
    11    17    18   ar
    12    19    20   ar
    13    21    16   ar
    14     9     1    1
    15     7     8    2
    16     1     5   ar
    17     2     4   ar
    18    14    15    2
    19    16    17   ar
    20    18    19   ar
    21    20    21   ar
    22     9    10    1
@<TRIPOS>MOLECULE
MolPort-019-766-990 CSSS09431944226 PubChem-851890 ZINC000000386788 ZINC00386788
 21 22 0 0 0
SMALL
GASTEIGER

@<TRIPOS>ATOM
      1 C          11.3224   40.9086    9.8724 C.ar    1  UNL1        0.1678
      2 C          13.2056   39.9810   10.6631 C.ar    1  UNL1        0.0704
      3 C          14.0191   39.2093   11.6445 C.3     1  UNL1        0.0528
      4 C          13.7114   40.5100    9.4681 C.ar    1  UNL1        0.0845
      5 N          11.8805   40.2000   10.8774 N.ar    1  UNL1       -0.2281
      6 S          12.4384   41.2943    8.6821 S.2     1  UNL1       -0.0484
      7 C           9.4391   42.5792   10.1997 C.2     1  UNL1        0.4068
      8 O          10.2176   43.4811   10.6153 O.2     1  UNL1       -0.2260
      9 N           9.9451   41.2937    9.8265 N.am    1  UNL1       -0.2298
     10 H           9.2958   40.6228    9.5142 H       1  UNL1        0.1601
     11 O           8.0661   42.8193   10.1036 O.3     1  UNL1       -0.4344
     12 C           6.5186   41.4520   11.3569 C.3     1  UNL1        0.0513
     13 C           7.1086   41.7722    9.9955 C.3     1  UNL1        0.2102
     14 C          15.1220   40.4705    9.0099 C.2     1  UNL1        0.2027
     15 O          15.7642   39.3906    9.1198 O.2     1  UNL1       -0.2860
     16 C          15.8122   41.6500    8.4372 C.ar    1  UNL1        0.0395
     17 C          15.2271   42.4183    7.4185 C.ar    1  UNL1        0.0032
     18 C          15.9055   43.5117    6.8725 C.ar    1  UNL1        0.0001
     19 C          17.1811   43.8436    7.3348 C.ar    1  UNL1        0.0000
     20 C          17.7790   43.0801    8.3403 C.ar    1  UNL1        0.0001
     21 C          17.0990   41.9871    8.8853 C.ar    1  UNL1        0.0032
@<TRIPOS>BOND
     1    12    13    1
     2    13    11    1
     3     7    11    1
     4     7     9   am
     5     1     6   ar
     6     2     5   ar
     7     3     2    1
     8     4     6   ar
     9     4    14    1
    10    14    16    1
    11    17    18   ar
    12    19    20   ar
    13    21    16   ar
    14     9     1    1
    15     7     8    2
    16     1     5   ar
    17     2     4   ar
    18    14    15    2
    19    16    17   ar
    20    18    19   ar
    21    20    21   ar
    22     9    10    1
@<TRIPOS>MOLECULE
MolPort-019-766-990 CSSS09431944226 PubChem-851890 ZINC000000386788 ZINC00386788
 21 22 0 0 0
SMALL
GASTEIGER

@<TRIPOS>ATOM
      1 C          13.5212   41.7014    7.8699 C.ar    1  UNL1        0.1678
      2 C          12.4117   40.7287    9.5596 C.ar    1  UNL1        0.0704
      3 C          12.2969   39.9775   10.8414 C.3     1  UNL1        0.0528
      4 C          11.3157   41.2133    8.8331 C.ar    1  UNL1        0.0845
      5 N          13.6300   41.0083    9.0237 N.ar    1  UNL1       -0.2281
      6 S          11.9213   41.9956    7.4639 S.2     1  UNL1       -0.0484
      7 C          14.7049   43.3668    6.3633 C.2     1  UNL1        0.4068
      8 O          13.7401   44.1797    6.3866 O.2     1  UNL1       -0.2260
      9 N          14.6343   42.1300    7.0797 N.am    1  UNL1       -0.2298
     10 H          15.4113   41.5280    7.0246 H       1  UNL1        0.1601
     11 O          15.8579   43.6587    5.6302 O.3     1  UNL1       -0.4344
     12 C          17.8139   43.8120    7.0393 C.3     1  UNL1        0.0513
     13 C          16.8669   44.5427    6.1048 C.3     1  UNL1        0.2102
     14 C           9.8815   41.0071    9.1520 C.2     1  UNL1        0.2027
     15 O           9.4785   41.2606   10.3199 O.2     1  UNL1       -0.2860
     16 C           8.9033   40.5057    8.1582 C.ar    1  UNL1        0.0395
     17 C           7.6636   41.1360    7.9680 C.ar    1  UNL1        0.0032
     18 C           6.7432   40.6321    7.0445 C.ar    1  UNL1        0.0001
     19 C           7.0503   39.4866    6.3066 C.ar    1  UNL1        0.0000
     20 C           8.2760   38.8437    6.4948 C.ar    1  UNL1        0.0001
     21 C           9.1955   39.3490    7.4186 C.ar    1  UNL1        0.0032
@<TRIPOS>BOND
     1    12    13    1
     2    13    11    1
     3     7    11    1
     4     7     9   am
     5     1     6   ar
     6     2     5   ar
     7     3     2    1
     8     4     6   ar
     9     4    14    1
    10    14    16    1
    11    17    18   ar
    12    19    20   ar
    13    21    16   ar
    14     9     1    1
    15     7     8    2
    16     1     5   ar
    17     2     4   ar
    18    14    15    2
    19    16    17   ar
    20    18    19   ar
    21    20    21   ar
    22     9    10    1
@<TRIPOS>MOLECULE
MolPort-019-766-990 CSSS09431944226 PubChem-851890 ZINC000000386788 ZINC00386788
 21 22 0 0 0
SMALL
GASTEIGER

@<TRIPOS>ATOM
      1 C          11.9158   41.5750    6.6672 C.ar    1  UNL1        0.1678
      2 C          13.9866   42.4112    6.8789 C.ar    1  UNL1        0.0704
      3 C          15.1006   43.3487    6.5622 C.3     1  UNL1        0.0528
      4 C          14.0613   41.4027    7.8492 C.ar    1  UNL1        0.0845
      5 N          12.7934   42.5050    6.2330 N.ar    1  UNL1       -0.2281
      6 S          12.5748   40.6005    7.8618 S.2     1  UNL1       -0.0484
      7 C          10.1637   40.4342    5.2273 C.2     1  UNL1        0.4068
      8 O          10.9877   39.5982    4.7643 O.2     1  UNL1       -0.2260
      9 N          10.5834   41.4290    6.1664 N.am    1  UNL1       -0.2298
     10 H           9.9033   42.0614    6.4930 H       1  UNL1        0.1601
     11 O           8.8263   40.4064    4.8242 O.3     1  UNL1       -0.4344
     12 C           8.3003   38.8890    6.6286 C.3     1  UNL1        0.0513
     13 C           7.7788   39.9424    5.6682 C.3     1  UNL1        0.2102
     14 C          15.2502   41.0405    8.6594 C.2     1  UNL1        0.2027
     15 O          16.3658   41.5450    8.3565 O.2     1  UNL1       -0.2860
     16 C          15.1844   40.1025    9.8045 C.ar    1  UNL1        0.0395
     17 C          14.0076   39.9403   10.5522 C.ar    1  UNL1        0.0032
     18 C          13.9731   39.0702   11.6457 C.ar    1  UNL1        0.0001
     19 C          15.1191   38.3586   12.0080 C.ar    1  UNL1        0.0000
     20 C          16.2996   38.5198   11.2790 C.ar    1  UNL1        0.0001
     21 C          16.3323   39.3901   10.1856 C.ar    1  UNL1        0.0032
@<TRIPOS>BOND
     1    12    13    1
     2    13    11    1
     3     7    11    1
     4     7     9   am
     5     1     6   ar
     6     2     5   ar
     7     3     2    1
     8     4     6   ar
     9     4    14    1
    10    14    16    1
    11    17    18   ar
    12    19    20   ar
    13    21    16   ar
    14     9     1    1
    15     7     8    2
    16     1     5   ar
    17     2     4   ar
    18    14    15    2
    19    16    17   ar
    20    18    19   ar
    21    20    21   ar
    22     9    10    1
@<TRIPOS>MOLECULE
MolPort-019-766-990 CSSS09431944226 PubChem-851890 ZINC000000386788 ZINC00386788
 21 22 0 0 0
SMALL
GASTEIGER

@<TRIPOS>ATOM
      1 C          11.0064   41.3540    8.1520 C.ar    1  UNL1        0.1678
      2 C          12.5218   40.5790    9.6132 C.ar    1  UNL1        0.0704
      3 C          12.9672   39.9778   10.9018 C.3     1  UNL1        0.0528
      4 C          13.3877   40.9194    8.5652 C.ar    1  UNL1        0.0845
      5 N          11.2040   40.8164    9.3749 N.ar    1  UNL1       -0.2281
      6 S          12.4460   41.5593    7.3173 S.2     1  UNL1       -0.0484
      7 C           9.3241   41.5644    6.2625 C.2     1  UNL1        0.4068
      8 O          10.1209   41.0903    5.4067 O.2     1  UNL1       -0.2260
      9 N           9.7246   41.7144    7.6281 N.am    1  UNL1       -0.2298
     10 H           9.0679   42.0947    8.2552 H       1  UNL1        0.1601
     11 O           8.0368   41.9581    5.8883 O.3     1  UNL1       -0.4344
     12 C           6.6898   43.8066    6.6654 C.3     1  UNL1        0.0513
     13 C           7.0448   42.3405    6.8341 C.3     1  UNL1        0.2102
     14 C          14.8681   40.8220    8.5733 C.2     1  UNL1        0.2027
     15 O          15.4019   39.7464    8.9591 O.2     1  UNL1       -0.2860
     16 C          15.7473   41.9394    8.1563 C.ar    1  UNL1        0.0395
     17 C          17.0192   42.1213    8.7216 C.ar    1  UNL1        0.0032
     18 C          17.8231   43.1972    8.3342 C.ar    1  UNL1        0.0001
     19 C          17.3594   44.1080    7.3822 C.ar    1  UNL1        0.0000
     20 C          16.0910   43.9446    6.8206 C.ar    1  UNL1        0.0001
     21 C          15.2883   42.8679    7.2089 C.ar    1  UNL1        0.0032
@<TRIPOS>BOND
     1    12    13    1
     2    13    11    1
     3     7    11    1
     4     7     9   am
     5     1     6   ar
     6     2     5   ar
     7     3     2    1
     8     4     6   ar
     9     4    14    1
    10    14    16    1
    11    17    18   ar
    12    19    20   ar
    13    21    16   ar
    14     9     1    1
    15     7     8    2
    16     1     5   ar
    17     2     4   ar
    18    14    15    2
    19    16    17   ar
    20    18    19   ar
    21    20    21   ar
    22     9    10    1
@<TRIPOS>MOLECULE
MolPort-019-766-990 CSSS09431944226 PubChem-851890 ZINC000000386788 ZINC00386788
 21 22 0 0 0
SMALL
GASTEIGER

@<TRIPOS>ATOM
      1 C          14.0122   41.7920    7.6994 C.ar    1  UNL1        0.1678
      2 C          13.2645   40.5187    9.3882 C.ar    1  UNL1        0.0704
      3 C          13.4015   39.7325   10.6465 C.3     1  UNL1        0.0528
      4 C          12.0524   40.7135    8.7124 C.ar    1  UNL1        0.0845
      5 N          14.3444   41.1242    8.8251 N.ar    1  UNL1       -0.2281
      6 S          12.3769   41.6619    7.3528 S.2     1  UNL1       -0.0484
      7 C          14.6108   43.6448    6.0705 C.2     1  UNL1        0.4068
      8 O          13.4244   44.0700    6.0095 O.2     1  UNL1       -0.2260
      9 N          14.9414   42.5197    6.8906 N.am    1  UNL1       -0.2298
     10 H          15.8803   42.2237    6.8990 H       1  UNL1        0.1601
     11 O          15.6223   44.2630    5.3310 O.3     1  UNL1       -0.4344
     12 C          17.9403   43.6744    5.6706 C.3     1  UNL1        0.0513
     13 C          16.8454   44.6968    5.9148 C.3     1  UNL1        0.2102
     14 C          10.7369   40.1268    9.0679 C.2     1  UNL1        0.2027
     15 O          10.3985   39.0336    8.5379 O.2     1  UNL1       -0.2860
     16 C           9.7983   40.7766   10.0127 C.ar    1  UNL1        0.0395
     17 C          10.0673   40.8348   11.3891 C.ar    1  UNL1        0.0032
     18 C           9.1567   41.4286   12.2679 C.ar    1  UNL1        0.0001
     19 C           7.9626   41.9638   11.7795 C.ar    1  UNL1        0.0000
     20 C           7.6780   41.9020   10.4133 C.ar    1  UNL1        0.0001
     21 C           8.5898   41.3080    9.5358 C.ar    1  UNL1        0.0032
@<TRIPOS>BOND
     1    12    13    1
     2    13    11    1
     3     7    11    1
     4     7     9   am
     5     1     6   ar
     6     2     5   ar
     7     3     2    1
     8     4     6   ar
     9     4    14    1
    10    14    16    1
    11    17    18   ar
    12    19    20   ar
    13    21    16   ar
    14     9     1    1
    15     7     8    2
    16     1     5   ar
    17     2     4   ar
    18    14    15    2
    19    16    17   ar
    20    18    19   ar
    21    20    21   ar
    22     9    10    1
@<TRIPOS>MOLECULE
MolPort-019-766-990 CSSS09431944226 PubChem-851890 ZINC000000386788 ZINC00386788
 21 22 0 0 0
SMALL
GASTEIGER

@<TRIPOS>ATOM
      1 C          11.1759   40.3096    9.5107 C.ar    1  UNL1        0.1678
      2 C          13.0796   39.7595   10.5622 C.ar    1  UNL1        0.0704
      3 C          13.8897   39.2457   11.7024 C.3     1  UNL1        0.0528
      4 C          13.6224   40.1819    9.3412 C.ar    1  UNL1        0.0845
      5 N          11.7238   39.8268   10.6466 N.ar    1  UNL1       -0.2281
      6 S          12.3389   40.6736    8.3591 S.2     1  UNL1       -0.0484
      7 C           9.1332   40.6174    8.0352 C.2     1  UNL1        0.4068
      8 O           9.8084   40.5687    6.9704 O.2     1  UNL1       -0.2260
      9 N           9.7717   40.4973    9.3102 N.am    1  UNL1       -0.2298
     10 H           9.2010   40.5476   10.1108 H       1  UNL1        0.1601
     11 O           7.7484   40.7968    7.9867 O.3     1  UNL1       -0.4344
     12 C           6.4788   39.6633    6.2725 C.3     1  UNL1        0.0513
     13 C           7.0401   40.9841    6.7669 C.3     1  UNL1        0.2102
     14 C          15.0626   40.2686    8.9958 C.2     1  UNL1        0.2027
     15 O          15.7843   39.2455    9.1477 O.2     1  UNL1       -0.2860
     16 C          15.6920   41.5105    8.4886 C.ar    1  UNL1        0.0395
     17 C          15.0718   42.2978    7.5058 C.ar    1  UNL1        0.0032
     18 C          15.6939   43.4518    7.0209 C.ar    1  UNL1        0.0001
     19 C          16.9479   43.8264    7.5087 C.ar    1  UNL1        0.0000
     20 C          17.5807   43.0453    8.4786 C.ar    1  UNL1        0.0001
     21 C          16.9571   41.8916    8.9626 C.ar    1  UNL1        0.0032
@<TRIPOS>BOND
     1    12    13    1
     2    13    11    1
     3     7    11    1
     4     7     9   am
     5     1     6   ar
     6     2     5   ar
     7     3     2    1
     8     4     6   ar
     9     4    14    1
    10    14    16    1
    11    17    18   ar
    12    19    20   ar
    13    21    16   ar
    14     9     1    1
    15     7     8    2
    16     1     5   ar
    17     2     4   ar
    18    14    15    2
    19    16    17   ar
    20    18    19   ar
    21    20    21   ar
    22     9    10    1
@<TRIPOS>MOLECULE
MolPort-019-766-990 CSSS09431944226 PubChem-851890 ZINC000000386788 ZINC00386788
 21 22 0 0 0
SMALL
GASTEIGER

@<TRIPOS>ATOM
      1 C          11.9389   40.1724    9.4858 C.ar    1  UNL1        0.1678
      2 C          10.4930   41.1485   10.8959 C.ar    1  UNL1        0.0704
      3 C           9.7062   41.2598   12.1565 C.3     1  UNL1        0.0528
      4 C          10.4770   42.1069    9.8736 C.ar    1  UNL1        0.0845
      5 N          11.3097   40.0832   10.6773 N.ar    1  UNL1       -0.2281
      6 S          11.5134   41.5650    8.6548 S.2     1  UNL1       -0.0484
      7 C          14.1703   38.9618    9.4971 C.2     1  UNL1        0.4068
      8 O          14.6146   39.6437   10.4614 O.2     1  UNL1       -0.2260
      9 N          12.8551   39.1948    8.9836 N.am    1  UNL1       -0.2298
     10 H          12.5578   38.6398    8.2267 H       1  UNL1        0.1601
     11 O          14.9599   37.9703    8.9092 O.3     1  UNL1       -0.4344
     12 C          14.0108   35.9263    9.7788 C.3     1  UNL1        0.0513
     13 C          14.4459   36.6946    8.5442 C.3     1  UNL1        0.2102
     14 C           9.6410   43.3314    9.8216 C.2     1  UNL1        0.2027
     15 O          10.1258   44.4141   10.2498 O.2     1  UNL1       -0.2860
     16 C           8.2555   43.3344    9.2963 C.ar    1  UNL1        0.0395
     17 C           7.6544   44.5106    8.8213 C.ar    1  UNL1        0.0032
     18 C           6.3369   44.4983    8.3544 C.ar    1  UNL1        0.0001
     19 C           5.6034   43.3097    8.3653 C.ar    1  UNL1        0.0000
     20 C           6.1863   42.1349    8.8460 C.ar    1  UNL1        0.0001
     21 C           7.5041   42.1488    9.3123 C.ar    1  UNL1        0.0032
@<TRIPOS>BOND
     1    12    13    1
     2    13    11    1
     3     7    11    1
     4     7     9   am
     5     1     6   ar
     6     2     5   ar
     7     3     2    1
     8     4     6   ar
     9     4    14    1
    10    14    16    1
    11    17    18   ar
    12    19    20   ar
    13    21    16   ar
    14     9     1    1
    15     7     8    2
    16     1     5   ar
    17     2     4   ar
    18    14    15    2
    19    16    17   ar
    20    18    19   ar
    21    20    21   ar
    22     9    10    1
@<TRIPOS>MOLECULE
MolPort-019-766-990 CSSS09431944226 PubChem-851890 ZINC000000386788 ZINC00386788
 21 22 0 0 0
SMALL
GASTEIGER

@<TRIPOS>ATOM
      1 C          11.8542   40.9971    6.8467 C.ar    1  UNL1        0.1678
      2 C          10.2460   39.8704    5.7621 C.ar    1  UNL1        0.0704
      3 C           9.7151   38.7909    4.8827 C.3     1  UNL1        0.0528
      4 C           9.4471   40.8367    6.3881 C.ar    1  UNL1        0.0845
      5 N          11.5771   39.9614    6.0257 N.ar    1  UNL1       -0.2281
      6 S          10.4718   41.8418    7.2787 S.2     1  UNL1       -0.0484
      7 C          14.0169   42.3153    6.6743 C.2     1  UNL1        0.4068
      8 O          13.6330   42.9453    5.6506 O.2     1  UNL1       -0.2260
      9 N          13.1693   41.3421    7.2925 N.am    1  UNL1       -0.2298
     10 H          13.5177   40.8741    8.0854 H       1  UNL1        0.1601
     11 O          15.2816   42.5535    7.2182 O.3     1  UNL1       -0.4344
     12 C          16.9880   43.8626    6.1183 C.3     1  UNL1        0.0513
     13 C          15.9054   43.8320    7.1818 C.3     1  UNL1        0.2102
     14 C           7.9815   41.0083    6.2339 C.2     1  UNL1        0.2027
     15 O           7.3792   40.3188    5.3665 O.2     1  UNL1       -0.2860
     16 C           7.1961   41.9638    7.0499 C.ar    1  UNL1        0.0395
     17 C           6.8807   43.2465    6.5750 C.ar    1  UNL1        0.0032
     18 C           6.1615   44.1432    7.3705 C.ar    1  UNL1        0.0001
     19 C           5.7568   43.7685    8.6538 C.ar    1  UNL1        0.0000
     20 C           6.0742   42.4990    9.1423 C.ar    1  UNL1        0.0001
     21 C           6.7933   41.6034    8.3454 C.ar    1  UNL1        0.0032
@<TRIPOS>BOND
     1    12    13    1
     2    13    11    1
     3     7    11    1
     4     7     9   am
     5     1     6   ar
     6     2     5   ar
     7     3     2    1
     8     4     6   ar
     9     4    14    1
    10    14    16    1
    11    17    18   ar
    12    19    20   ar
    13    21    16   ar
    14     9     1    1
    15     7     8    2
    16     1     5   ar
    17     2     4   ar
    18    14    15    2
    19    16    17   ar
    20    18    19   ar
    21    20    21   ar
    22     9    10    1
