@<TRIPOS>MOLECULE
Molport-053-323-739 PubChem-110097764
 27 30 0 0 0
SMALL
GASTEIGER

@<TRIPOS>ATOM
      1 C          14.7775   39.8596    9.7662 C.ar    1  UNL1       -0.0168
      2 C          15.2011   40.9502    9.0034 C.ar    1  UNL1        0.0302
      3 C          16.5651   41.2367    8.9042 C.ar    1  UNL1        0.1329
      4 C          17.0819   39.3825   10.3021 C.ar    1  UNL1        0.1000
      5 C          15.7279   39.0673   10.4233 C.ar    1  UNL1        0.0165
      6 N          17.4685   40.4493    9.5527 N.ar    1  UNL1       -0.2291
      7 C          10.7713   38.8251    8.7061 C.3     1  UNL1        0.0724
      8 C          11.5331   37.8505    9.6086 C.3     1  UNL1        0.0177
      9 C          13.0262   38.1106    9.4996 C.3     1  UNL1        0.0072
     10 C          13.3150   39.5616    9.8635 C.3     1  UNL1        0.0385
     11 C          12.5003   40.5071    8.9698 C.3     1  UNL1        0.0767
     12 N          11.0579   40.2325    9.0262 N.3     1  UNL1       -0.2674
     13 C          10.5415   40.5702   10.3508 C.3     1  UNL1        0.1183
     14 C           8.0088   41.7655   11.6598 C.3     1  UNL1        0.1318
     15 C           9.0717   43.8272   10.7441 C.ar    1  UNL1        0.1784
     16 C          10.8672   43.0513    9.8304 C.ar    1  UNL1        0.1147
     17 C          10.1639   42.0143   10.4016 C.ar    1  UNL1        0.0739
     18 N           9.0472   42.5023   10.9603 N.ar    1  UNL1       -0.3092
     19 N          10.1757   44.1907   10.0550 N.ar    1  UNL1       -0.2226
     20 N          16.9848   42.3605    8.1208 N.pl3   1  UNL1       -0.2821
     21 H          17.9303   42.6253    8.1933 H       1  UNL1        0.1551
     22 C          16.1607   43.1357    7.2422 C.ar    1  UNL1        0.1526
     23 C          14.1673   43.4219    5.9886 C.ar    1  UNL1        0.1210
     24 C          14.6184   44.6694    5.5548 C.ar    1  UNL1        0.1196
     25 C          16.6085   44.3849    6.8069 C.ar    1  UNL1        0.1332
     26 N          14.9471   42.6834    6.8215 N.ar    1  UNL1       -0.2258
     27 N          15.8290   45.1235    5.9735 N.ar    1  UNL1       -0.2378
@<TRIPOS>BOND
     1    14    18    1
     2    16    19   ar
     3    17    18   ar
     4    13    17    1
     5    13    12    1
     6     7    12    1
     7     7     8    1
     8     8     9    1
     9     9    10    1
    10    10    11    1
    11    10     1    1
    12    11    12    1
    13     2     3   ar
    14     3    20    1
    15     4     6   ar
    16     5     1   ar
    17    23    26   ar
    18    24    27   ar
    19    25    22   ar
    20    18    15   ar
    21    20    22    1
    22    15    19   ar
    23    16    17   ar
    24     1     2   ar
    25     3     6   ar
    26     4     5   ar
    27    22    26   ar
    28    23    24   ar
    29    25    27   ar
    30    20    21    1
@<TRIPOS>MOLECULE
Molport-053-323-739 PubChem-110097764
 27 30 0 0 0
SMALL
GASTEIGER

@<TRIPOS>ATOM
      1 C          12.5615   40.1329    9.3006 C.ar    1  UNL1       -0.0168
      2 C          13.0013   40.8252    8.1701 C.ar    1  UNL1        0.0302
      3 C          12.5192   42.1118    7.9160 C.ar    1  UNL1        0.1329
      4 C          11.1801   42.0252    9.8803 C.ar    1  UNL1        0.1000
      5 C          11.6404   40.7389   10.1649 C.ar    1  UNL1        0.0165
      6 N          11.6245   42.6783    8.7735 N.ar    1  UNL1       -0.2291
      7 C          13.5591   36.4846   11.2851 C.3     1  UNL1        0.0724
      8 C          12.5278   36.4106   10.1557 C.3     1  UNL1        0.0177
      9 C          11.9536   37.7930    9.8939 C.3     1  UNL1        0.0072
     10 C          13.0860   38.7570    9.5632 C.3     1  UNL1        0.0385
     11 C          14.1221   38.7703   10.6959 C.3     1  UNL1        0.0767
     12 N          14.6478   37.4310   10.9943 N.3     1  UNL1       -0.2674
     13 C          15.4526   36.9540    9.8719 C.3     1  UNL1        0.1183
     14 C          17.9134   35.6909    8.4912 C.3     1  UNL1        0.1318
     15 C          19.0193   37.3993    9.9324 C.ar    1  UNL1        0.1784
     16 C          17.3370   38.3331   10.9114 C.ar    1  UNL1        0.1147
     17 C          16.8793   37.3557   10.0561 C.ar    1  UNL1        0.0739
     18 N          17.9293   36.7755    9.4576 N.ar    1  UNL1       -0.3092
     19 N          18.6855   38.3583   10.8238 N.ar    1  UNL1       -0.2226
     20 N          12.9768   42.8088    6.7509 N.pl3   1  UNL1       -0.2821
     21 H          12.3431   42.8872    6.0016 H       1  UNL1        0.1551
     22 C          14.2681   43.4026    6.5717 C.ar    1  UNL1        0.1526
     23 C          16.5951   43.4749    7.0270 C.ar    1  UNL1        0.1210
     24 C          16.7253   44.5833    6.1889 C.ar    1  UNL1        0.1196
     25 C          14.4023   44.5113    5.7331 C.ar    1  UNL1        0.1332
     26 N          15.3712   42.9096    7.1999 N.ar    1  UNL1       -0.2258
     27 N          15.6262   45.0771    5.5604 N.ar    1  UNL1       -0.2378
@<TRIPOS>BOND
     1    14    18    1
     2    16    19   ar
     3    17    18   ar
     4    13    17    1
     5    13    12    1
     6     7    12    1
     7     7     8    1
     8     8     9    1
     9     9    10    1
    10    10    11    1
    11    10     1    1
    12    11    12    1
    13     2     3   ar
    14     3    20    1
    15     4     6   ar
    16     5     1   ar
    17    23    26   ar
    18    24    27   ar
    19    25    22   ar
    20    18    15   ar
    21    20    22    1
    22    15    19   ar
    23    16    17   ar
    24     1     2   ar
    25     3     6   ar
    26     4     5   ar
    27    22    26   ar
    28    23    24   ar
    29    25    27   ar
    30    20    21    1
@<TRIPOS>MOLECULE
Molport-053-323-739 PubChem-110097764
 27 30 0 0 0
SMALL
GASTEIGER

@<TRIPOS>ATOM
      1 C          11.6738   41.4424    9.5994 C.ar    1  UNL1       -0.0168
      2 C          12.6233   41.7722    8.6297 C.ar    1  UNL1        0.0302
      3 C          13.8521   41.1072    8.6105 C.ar    1  UNL1        0.1329
      4 C          13.2049   39.8046   10.4930 C.ar    1  UNL1        0.1000
      5 C          11.9677   40.4483   10.5418 C.ar    1  UNL1        0.0165
      6 N          14.1119   40.1435    9.5382 N.ar    1  UNL1       -0.2291
      7 C           8.0006   43.1579   10.9441 C.3     1  UNL1        0.0724
      8 C           9.0827   44.1185   10.4431 C.3     1  UNL1        0.0177
      9 C          10.4334   43.4226   10.4579 C.3     1  UNL1        0.0072
     10 C          10.3614   42.1596    9.6088 C.3     1  UNL1        0.0385
     11 C           9.2372   41.2431   10.1117 C.3     1  UNL1        0.0767
     12 N           7.9336   41.9200   10.1513 N.3     1  UNL1       -0.2674
     13 C           7.4845   42.2086    8.7912 C.3     1  UNL1        0.1183
     14 C           4.7573   41.0405    9.6599 C.3     1  UNL1        0.1318
     15 C           4.0864   43.3576    9.0278 C.ar    1  UNL1        0.1784
     16 C           5.9668   44.2329    8.4286 C.ar    1  UNL1        0.1147
     17 C           6.1778   42.9310    8.8245 C.ar    1  UNL1        0.0739
     18 N           5.0053   42.3919    9.1880 N.ar    1  UNL1       -0.3092
     19 N           4.6480   44.4960    8.5647 N.ar    1  UNL1       -0.2226
     20 N          14.8177   41.4581    7.6120 N.pl3   1  UNL1       -0.2821
     21 H          15.4577   40.7588    7.3465 H       1  UNL1        0.1551
     22 C          14.9412   42.7292    6.9628 C.ar    1  UNL1        0.1526
     23 C          16.1826   44.6886    6.4661 C.ar    1  UNL1        0.1210
     24 C          15.1236   45.1639    5.6912 C.ar    1  UNL1        0.1196
     25 C          13.8839   43.2075    6.1858 C.ar    1  UNL1        0.1332
     26 N          16.0684   43.4835    7.0842 N.ar    1  UNL1       -0.2258
     27 N          13.9976   44.4130    5.5679 N.ar    1  UNL1       -0.2378
@<TRIPOS>BOND
     1    14    18    1
     2    16    19   ar
     3    17    18   ar
     4    13    17    1
     5    13    12    1
     6     7    12    1
     7     7     8    1
     8     8     9    1
     9     9    10    1
    10    10    11    1
    11    10     1    1
    12    11    12    1
    13     2     3   ar
    14     3    20    1
    15     4     6   ar
    16     5     1   ar
    17    23    26   ar
    18    24    27   ar
    19    25    22   ar
    20    18    15   ar
    21    20    22    1
    22    15    19   ar
    23    16    17   ar
    24     1     2   ar
    25     3     6   ar
    26     4     5   ar
    27    22    26   ar
    28    23    24   ar
    29    25    27   ar
    30    20    21    1
@<TRIPOS>MOLECULE
Molport-053-323-739 PubChem-110097764
 27 30 0 0 0
SMALL
GASTEIGER

@<TRIPOS>ATOM
      1 C          10.8394   39.9940    5.9640 C.ar    1  UNL1       -0.0168
      2 C           9.5738   40.1817    6.5240 C.ar    1  UNL1        0.0302
      3 C           8.4342   39.9844    5.7399 C.ar    1  UNL1        0.1329
      4 C           9.7895   39.4227    3.8672 C.ar    1  UNL1        0.1000
      5 C          10.9489   39.6110    4.6208 C.ar    1  UNL1        0.0165
      6 N           8.5690   39.6110    4.4363 N.ar    1  UNL1       -0.2291
      7 C          13.3432   40.9648    9.2854 C.3     1  UNL1        0.0724
      8 C          13.3063   39.5010    8.8378 C.3     1  UNL1        0.0177
      9 C          12.0627   39.2515    8.0009 C.3     1  UNL1        0.0072
     10 C          12.0518   40.2062    6.8137 C.3     1  UNL1        0.0385
     11 C          12.1359   41.6603    7.2986 C.3     1  UNL1        0.0767
     12 N          13.3072   41.9028    8.1521 N.3     1  UNL1       -0.2674
     13 C          14.5291   41.7916    7.3585 C.3     1  UNL1        0.1183
     14 C          16.8677   43.7290    7.9367 C.3     1  UNL1        0.1318
     15 C          15.6772   44.9690    6.1300 C.ar    1  UNL1        0.1784
     16 C          14.0356   43.6450    5.6690 C.ar    1  UNL1        0.1147
     17 C          14.8074   43.0827    6.6612 C.ar    1  UNL1        0.0739
     18 N          15.8201   43.9133    6.9472 N.ar    1  UNL1       -0.3092
     19 N          14.5929   44.8304    5.3359 N.ar    1  UNL1       -0.2226
     20 N           7.1426   40.1836    6.3269 N.pl3   1  UNL1       -0.2821
     21 H           6.5031   39.4381    6.2591 H       1  UNL1        0.1551
     22 C           6.6923   41.3636    7.0031 C.ar    1  UNL1        0.1526
     23 C           6.4134   43.7174    7.0966 C.ar    1  UNL1        0.1210
     24 C           5.8064   43.5965    8.3474 C.ar    1  UNL1        0.1196
     25 C           6.0836   41.2463    8.2545 C.ar    1  UNL1        0.1332
     26 N           6.8426   42.6000    6.4527 N.ar    1  UNL1       -0.2258
     27 N           5.6547   42.3637    8.8989 N.ar    1  UNL1       -0.2378
@<TRIPOS>BOND
     1    14    18    1
     2    16    19   ar
     3    17    18   ar
     4    13    17    1
     5    13    12    1
     6     7    12    1
     7     7     8    1
     8     8     9    1
     9     9    10    1
    10    10    11    1
    11    10     1    1
    12    11    12    1
    13     2     3   ar
    14     3    20    1
    15     4     6   ar
    16     5     1   ar
    17    23    26   ar
    18    24    27   ar
    19    25    22   ar
    20    18    15   ar
    21    20    22    1
    22    15    19   ar
    23    16    17   ar
    24     1     2   ar
    25     3     6   ar
    26     4     5   ar
    27    22    26   ar
    28    23    24   ar
    29    25    27   ar
    30    20    21    1
@<TRIPOS>MOLECULE
Molport-053-323-739 PubChem-110097764
 27 30 0 0 0
SMALL
GASTEIGER

@<TRIPOS>ATOM
      1 C          12.2302   40.4628    9.4939 C.ar    1  UNL1       -0.0168
      2 C          13.2210   41.0249    8.6858 C.ar    1  UNL1        0.0302
      3 C          14.5670   40.8418    9.0134 C.ar    1  UNL1        0.1329
      4 C          13.9542   39.5601   10.9215 C.ar    1  UNL1        0.1000
      5 C          12.6004   39.7228   10.6245 C.ar    1  UNL1        0.0165
      6 N          14.8996   40.1168   10.1182 N.ar    1  UNL1       -0.2291
      7 C           8.6859   41.2208    7.2341 C.3     1  UNL1        0.0724
      8 C           8.8514   39.8212    7.8327 C.3     1  UNL1        0.0177
      9 C          10.3118   39.5795    8.1762 C.3     1  UNL1        0.0072
     10 C          10.7929   40.6638    9.1322 C.3     1  UNL1        0.0385
     11 C          10.5694   42.0529    8.5180 C.3     1  UNL1        0.0767
     12 N           9.1696   42.2803    8.1335 N.3     1  UNL1       -0.2674
     13 C           8.3339   42.3554    9.3298 C.3     1  UNL1        0.1183
     14 C           5.4355   41.2816    9.3904 C.3     1  UNL1        0.1318
     15 C           5.0384   43.6425    8.6923 C.ar    1  UNL1        0.1784
     16 C           7.0392   44.4526    8.6531 C.ar    1  UNL1        0.1147
     17 C           7.0916   43.1321    9.0401 C.ar    1  UNL1        0.0739
     18 N           5.8470   42.6339    9.0551 N.ar    1  UNL1       -0.3092
     19 N           5.7421   44.7683    8.4411 N.ar    1  UNL1       -0.2226
     20 N          15.5724   41.4268    8.1770 N.pl3   1  UNL1       -0.2821
     21 H          16.4597   41.0003    8.1830 H       1  UNL1        0.1551
     22 C          15.4104   42.5728    7.3329 C.ar    1  UNL1        0.1526
     23 C          16.1730   44.6630    6.5103 C.ar    1  UNL1        0.1210
     24 C          15.0480   44.7510    5.6890 C.ar    1  UNL1        0.1196
     25 C          14.2864   42.6638    6.5090 C.ar    1  UNL1        0.1332
     26 N          16.3294   43.5775    7.3131 N.ar    1  UNL1       -0.2258
     27 N          14.1295   43.7495    5.7063 N.ar    1  UNL1       -0.2378
@<TRIPOS>BOND
     1    14    18    1
     2    16    19   ar
     3    17    18   ar
     4    13    17    1
     5    13    12    1
     6     7    12    1
     7     7     8    1
     8     8     9    1
     9     9    10    1
    10    10    11    1
    11    10     1    1
    12    11    12    1
    13     2     3   ar
    14     3    20    1
    15     4     6   ar
    16     5     1   ar
    17    23    26   ar
    18    24    27   ar
    19    25    22   ar
    20    18    15   ar
    21    20    22    1
    22    15    19   ar
    23    16    17   ar
    24     1     2   ar
    25     3     6   ar
    26     4     5   ar
    27    22    26   ar
    28    23    24   ar
    29    25    27   ar
    30    20    21    1
@<TRIPOS>MOLECULE
Molport-053-323-739 PubChem-110097764
 27 30 0 0 0
SMALL
GASTEIGER

@<TRIPOS>ATOM
      1 C          15.3166   41.2381    8.5190 C.ar    1  UNL1       -0.0168
      2 C          14.1078   41.3170    7.8239 C.ar    1  UNL1        0.0302
      3 C          13.9440   42.2841    6.8287 C.ar    1  UNL1        0.1329
      4 C          16.1514   43.0854    7.2092 C.ar    1  UNL1        0.1000
      5 C          16.3496   42.1323    8.2090 C.ar    1  UNL1        0.0165
      6 N          14.9653   43.1409    6.5464 N.ar    1  UNL1       -0.2291
      7 C          16.6166   37.7461   10.6069 C.3     1  UNL1        0.0724
      8 C          17.0352   39.1032   11.1791 C.3     1  UNL1        0.0177
      9 C          16.9105   40.1727   10.1069 C.3     1  UNL1        0.0072
     10 C          15.4809   40.1976    9.5808 C.3     1  UNL1        0.0385
     11 C          15.0815   38.8105    9.0582 C.3     1  UNL1        0.0767
     12 N          15.2465   37.7580   10.0702 N.3     1  UNL1       -0.2674
     13 C          14.2780   37.9510   11.1471 C.3     1  UNL1        0.1183
     14 C          12.7151   35.4194   10.3075 C.3     1  UNL1        0.1318
     15 C          11.0520   37.1931    9.7537 C.ar    1  UNL1        0.1784
     16 C          12.0876   38.9937   10.3424 C.ar    1  UNL1        0.1147
     17 C          12.8883   37.9039   10.6022 C.ar    1  UNL1        0.0739
     18 N          12.2420   36.7906   10.2276 N.ar    1  UNL1       -0.3092
     19 N          10.9305   38.5375    9.8132 N.ar    1  UNL1       -0.2226
     20 N          12.6975   42.3552    6.1260 N.pl3   1  UNL1       -0.2821
     21 H          12.6339   43.0152    5.3983 H       1  UNL1        0.1551
     22 C          11.5348   41.5582    6.3809 C.ar    1  UNL1        0.1526
     23 C           9.5836   41.0873    7.6451 C.ar    1  UNL1        0.1210
     24 C           9.3142   39.9924    6.8227 C.ar    1  UNL1        0.1196
     25 C          11.2615   40.4623    5.5594 C.ar    1  UNL1        0.1332
     26 N          10.6864   41.8451    7.4067 N.ar    1  UNL1       -0.2258
     27 N          10.1589   39.7039    5.7979 N.ar    1  UNL1       -0.2378
@<TRIPOS>BOND
     1    14    18    1
     2    16    19   ar
     3    17    18   ar
     4    13    17    1
     5    13    12    1
     6     7    12    1
     7     7     8    1
     8     8     9    1
     9     9    10    1
    10    10    11    1
    11    10     1    1
    12    11    12    1
    13     2     3   ar
    14     3    20    1
    15     4     6   ar
    16     5     1   ar
    17    23    26   ar
    18    24    27   ar
    19    25    22   ar
    20    18    15   ar
    21    20    22    1
    22    15    19   ar
    23    16    17   ar
    24     1     2   ar
    25     3     6   ar
    26     4     5   ar
    27    22    26   ar
    28    23    24   ar
    29    25    27   ar
    30    20    21    1
@<TRIPOS>MOLECULE
Molport-053-323-739 PubChem-110097764
 27 30 0 0 0
SMALL
GASTEIGER

@<TRIPOS>ATOM
      1 C          14.1997   40.9995    8.1926 C.ar    1  UNL1       -0.0168
      2 C          13.0181   41.1577    7.4649 C.ar    1  UNL1        0.0302
      3 C          12.9196   42.1823    6.5201 C.ar    1  UNL1        0.1329
      4 C          15.1380   42.8851    7.0139 C.ar    1  UNL1        0.1000
      5 C          15.2712   41.8729    7.9654 C.ar    1  UNL1        0.0165
      6 N          13.9772   43.0174    6.3181 N.ar    1  UNL1       -0.2291
      7 C          14.9905   38.8700   11.8097 C.3     1  UNL1        0.0724
      8 C          13.5249   39.0365   11.3987 C.3     1  UNL1        0.0177
      9 C          13.3982   40.1753   10.4006 C.3     1  UNL1        0.0072
     10 C          14.2941   39.8979    9.1999 C.3     1  UNL1        0.0385
     11 C          15.7456   39.6915    9.6548 C.3     1  UNL1        0.0767
     12 N          15.8753   38.6269   10.6593 N.3     1  UNL1       -0.2674
     13 C          15.5766   37.3329   10.0500 C.3     1  UNL1        0.1183
     14 C          15.7751   35.6096    7.4911 C.3     1  UNL1        0.1318
     15 C          18.1565   35.6123    8.2314 C.ar    1  UNL1        0.1784
     16 C          18.0816   36.8263   10.0151 C.ar    1  UNL1        0.1147
     17 C          16.8190   36.7385    9.4724 C.ar    1  UNL1        0.0739
     18 N          16.8719   35.9776    8.3698 N.ar    1  UNL1       -0.3092
     19 N          18.9195   36.1189    9.2248 N.ar    1  UNL1       -0.2226
     20 N          11.7003   42.3345    5.7833 N.pl3   1  UNL1       -0.2821
     21 H          11.5061   43.2304    5.4242 H       1  UNL1        0.1551
     22 C          10.7366   41.3081    5.5190 C.ar    1  UNL1        0.1526
     23 C          10.0558   39.3577    4.3528 C.ar    1  UNL1        0.1210
     24 C           8.8487   39.3594    5.0533 C.ar    1  UNL1        0.1196
     25 C           9.5280   41.3061    6.2187 C.ar    1  UNL1        0.1332
     26 N          10.9720   40.3307    4.6005 N.ar    1  UNL1       -0.2258
     27 N           8.6113   40.3334    5.9709 N.ar    1  UNL1       -0.2378
@<TRIPOS>BOND
     1    14    18    1
     2    16    19   ar
     3    17    18   ar
     4    13    17    1
     5    13    12    1
     6     7    12    1
     7     7     8    1
     8     8     9    1
     9     9    10    1
    10    10    11    1
    11    10     1    1
    12    11    12    1
    13     2     3   ar
    14     3    20    1
    15     4     6   ar
    16     5     1   ar
    17    23    26   ar
    18    24    27   ar
    19    25    22   ar
    20    18    15   ar
    21    20    22    1
    22    15    19   ar
    23    16    17   ar
    24     1     2   ar
    25     3     6   ar
    26     4     5   ar
    27    22    26   ar
    28    23    24   ar
    29    25    27   ar
    30    20    21    1
@<TRIPOS>MOLECULE
Molport-053-323-739 PubChem-110097764
 27 30 0 0 0
SMALL
GASTEIGER

@<TRIPOS>ATOM
      1 C          11.4667   40.7579    9.2250 C.ar    1  UNL1       -0.0168
      2 C          12.8092   41.1421    9.2544 C.ar    1  UNL1        0.0302
      3 C          13.8088   40.1668    9.2098 C.ar    1  UNL1        0.1329
      4 C          12.1647   38.4504    9.1092 C.ar    1  UNL1        0.1000
      5 C          11.1406   39.3974    9.1523 C.ar    1  UNL1        0.0165
      6 N          13.4640   38.8504    9.1383 N.ar    1  UNL1       -0.2291
      7 C           8.5543   43.5171   10.6907 C.3     1  UNL1        0.0724
      8 C           9.7979   44.1013   10.0148 C.3     1  UNL1        0.0177
      9 C          10.9040   43.0598    9.9874 C.3     1  UNL1        0.0072
     10 C          10.4056   41.8109    9.2714 C.3     1  UNL1        0.0385
     11 C           9.1338   41.2807    9.9482 C.3     1  UNL1        0.0767
     12 N           8.0732   42.2946   10.0276 N.3     1  UNL1       -0.2674
     13 C           7.5806   42.6013    8.6866 C.3     1  UNL1        0.1183
     14 C           4.9818   41.1449    9.5129 C.3     1  UNL1        0.1318
     15 C           4.0946   43.4195    9.0052 C.ar    1  UNL1        0.1784
     16 C           5.8799   44.4932    8.4389 C.ar    1  UNL1        0.1147
     17 C           6.2137   43.1978    8.7660 C.ar    1  UNL1        0.0739
     18 N           5.0997   42.5355    9.1094 N.ar    1  UNL1       -0.3092
     19 N           4.5442   44.6266    8.5973 N.ar    1  UNL1       -0.2226
     20 N          15.1816   40.5754    9.2438 N.pl3   1  UNL1       -0.2821
     21 H          15.7777   40.0825    9.8529 H       1  UNL1        0.1551
     22 C          15.7700   41.6324    8.4766 C.ar    1  UNL1        0.1526
     23 C          15.6418   43.2624    6.7579 C.ar    1  UNL1        0.1210
     24 C          16.9509   43.6589    7.0354 C.ar    1  UNL1        0.1196
     25 C          17.0794   42.0324    8.7521 C.ar    1  UNL1        0.1332
     26 N          15.0808   42.2593    7.4834 N.ar    1  UNL1       -0.2258
     27 N          17.6409   43.0353    8.0264 N.ar    1  UNL1       -0.2378
@<TRIPOS>BOND
     1    14    18    1
     2    16    19   ar
     3    17    18   ar
     4    13    17    1
     5    13    12    1
     6     7    12    1
     7     7     8    1
     8     8     9    1
     9     9    10    1
    10    10    11    1
    11    10     1    1
    12    11    12    1
    13     2     3   ar
    14     3    20    1
    15     4     6   ar
    16     5     1   ar
    17    23    26   ar
    18    24    27   ar
    19    25    22   ar
    20    18    15   ar
    21    20    22    1
    22    15    19   ar
    23    16    17   ar
    24     1     2   ar
    25     3     6   ar
    26     4     5   ar
    27    22    26   ar
    28    23    24   ar
    29    25    27   ar
    30    20    21    1
@<TRIPOS>MOLECULE
Molport-053-323-739 PubChem-110097764
 27 30 0 0 0
SMALL
GASTEIGER

@<TRIPOS>ATOM
      1 C          12.2037   40.8919    9.8980 C.ar    1  UNL1       -0.0168
      2 C          13.3603   41.0839    9.1390 C.ar    1  UNL1        0.0302
      3 C          14.5450   40.4422    9.5093 C.ar    1  UNL1        0.1329
      4 C          13.4484   39.4330   11.3635 C.ar    1  UNL1        0.1000
      5 C          12.2480   40.0580   11.0229 C.ar    1  UNL1        0.0165
      6 N          14.5604   39.6357   10.6075 N.ar    1  UNL1       -0.2291
      7 C           8.1400   42.2055    9.8350 C.3     1  UNL1        0.0724
      8 C           9.2160   43.2627   10.0982 C.3     1  UNL1        0.0177
      9 C          10.5003   42.5866   10.5483 C.3     1  UNL1        0.0072
     10 C          10.9410   41.5824    9.4908 C.3     1  UNL1        0.0385
     11 C           9.8215   40.5674    9.2206 C.3     1  UNL1        0.0767
     12 N           8.5584   41.2111    8.8342 N.3     1  UNL1       -0.2674
     13 C           8.7036   41.8374    7.5220 C.3     1  UNL1        0.1183
     14 C          11.1339   41.1580    5.7362 C.3     1  UNL1        0.1318
     15 C           9.4395   39.5657    4.8348 C.ar    1  UNL1        0.1784
     16 C           7.7161   39.9831    6.0662 C.ar    1  UNL1        0.1147
     17 C           8.7601   40.7914    6.4575 C.ar    1  UNL1        0.0739
     18 N           9.8240   40.5319    5.6841 N.ar    1  UNL1       -0.3092
     19 N           8.1534   39.2101    5.0473 N.ar    1  UNL1       -0.2226
     20 N          15.7245   40.6509    8.7231 N.pl3   1  UNL1       -0.2821
     21 H          16.2585   39.8540    8.5016 H       1  UNL1        0.1551
     22 C          16.2012   41.9080    8.2284 C.ar    1  UNL1        0.1526
     23 C          15.9934   43.7778    6.7836 C.ar    1  UNL1        0.1210
     24 C          17.1630   44.3211    7.3174 C.ar    1  UNL1        0.1196
     25 C          17.3707   42.4550    8.7609 C.ar    1  UNL1        0.1332
     26 N          15.5388   42.5849    7.2500 N.ar    1  UNL1       -0.2258
     27 N          17.8259   43.6479    8.2943 N.ar    1  UNL1       -0.2378
@<TRIPOS>BOND
     1    14    18    1
     2    16    19   ar
     3    17    18   ar
     4    13    17    1
     5    13    12    1
     6     7    12    1
     7     7     8    1
     8     8     9    1
     9     9    10    1
    10    10    11    1
    11    10     1    1
    12    11    12    1
    13     2     3   ar
    14     3    20    1
    15     4     6   ar
    16     5     1   ar
    17    23    26   ar
    18    24    27   ar
    19    25    22   ar
    20    18    15   ar
    21    20    22    1
    22    15    19   ar
    23    16    17   ar
    24     1     2   ar
    25     3     6   ar
    26     4     5   ar
    27    22    26   ar
    28    23    24   ar
    29    25    27   ar
    30    20    21    1
@<TRIPOS>MOLECULE
Molport-053-323-739 PubChem-110097764
 27 30 0 0 0
SMALL
GASTEIGER

@<TRIPOS>ATOM
      1 C           8.8216   40.3505    7.8086 C.ar    1  UNL1       -0.0168
      2 C           7.8222   41.2392    8.2110 C.ar    1  UNL1        0.0302
      3 C           6.5517   41.1580    7.6352 C.ar    1  UNL1        0.1329
      4 C           7.2561   39.3365    6.2770 C.ar    1  UNL1        0.1000
      5 C           8.5361   39.3890    6.8305 C.ar    1  UNL1        0.0165
      6 N           6.3003   40.2126    6.6866 N.ar    1  UNL1       -0.2291
      7 C          13.0633   40.3537    8.3109 C.3     1  UNL1        0.0724
      8 C          12.3299   41.6812    8.5219 C.3     1  UNL1        0.0177
      9 C          10.9613   41.6215    7.8643 C.3     1  UNL1        0.0072
     10 C          10.1772   40.4458    8.4334 C.3     1  UNL1        0.0385
     11 C          10.9628   39.1404    8.2449 C.3     1  UNL1        0.0767
     12 N          12.3085   39.2028    8.8317 N.3     1  UNL1       -0.2674
     13 C          12.2104   39.2734   10.2879 C.3     1  UNL1        0.1183
     14 C          12.4815   36.2060   10.5612 C.3     1  UNL1        0.1318
     15 C          14.5705   36.9569   11.6975 C.ar    1  UNL1        0.1784
     16 C          14.4447   39.1046   11.5176 C.ar    1  UNL1        0.1147
     17 C          13.3459   38.5334   10.9152 C.ar    1  UNL1        0.0739
     18 N          13.4271   37.2008   11.0372 N.ar    1  UNL1       -0.3092
     19 N          15.2140   38.1049   12.0032 N.ar    1  UNL1       -0.2226
     20 N           5.5371   42.0782    8.0556 N.pl3   1  UNL1       -0.2821
     21 H           5.3707   42.8539    7.4727 H       1  UNL1        0.1551
     22 C           4.7417   41.9777    9.2427 C.ar    1  UNL1        0.1526
     23 C           4.4553   41.2738   11.4899 C.ar    1  UNL1        0.1210
     24 C           3.1691   41.8153   11.4963 C.ar    1  UNL1        0.1196
     25 C           3.4544   42.5192    9.2531 C.ar    1  UNL1        0.1332
     26 N           5.2124   41.3666   10.3649 N.ar    1  UNL1       -0.2258
     27 N           2.6968   42.4262   10.3779 N.ar    1  UNL1       -0.2378
@<TRIPOS>BOND
     1    14    18    1
     2    16    19   ar
     3    17    18   ar
     4    13    17    1
     5    13    12    1
     6     7    12    1
     7     7     8    1
     8     8     9    1
     9     9    10    1
    10    10    11    1
    11    10     1    1
    12    11    12    1
    13     2     3   ar
    14     3    20    1
    15     4     6   ar
    16     5     1   ar
    17    23    26   ar
    18    24    27   ar
    19    25    22   ar
    20    18    15   ar
    21    20    22    1
    22    15    19   ar
    23    16    17   ar
    24     1     2   ar
    25     3     6   ar
    26     4     5   ar
    27    22    26   ar
    28    23    24   ar
    29    25    27   ar
    30    20    21    1
