@<TRIPOS>MOLECULE
MolPort-004-886-863 11917139 CSSS00160882810 ChemDiv-D337-0195 LN01984288 MCULE-1689293103 PubChem-16455803 ZINC000011917139 ZINC11917139
 25 27 0 0 0
SMALL
GASTEIGER

@<TRIPOS>ATOM
      1 C          10.3792   42.7276    9.3313 C.2     1  UNL1        0.2720
      2 N          11.0456   41.6841    8.6111 N.am    1  UNL1       -0.2579
      3 O          11.0390   43.6014    9.9564 O.2     1  UNL1       -0.2680
      4 H          10.4842   41.0269    8.1398 H       1  UNL1        0.1572
      5 C          14.7831   41.0113    8.7781 C.ar    1  UNL1        0.1606
      6 C          12.4645   41.5236    8.5243 C.ar    1  UNL1        0.1888
      7 S          13.3807   40.6680    9.6464 S.2     1  UNL1       -0.0241
      8 N          14.5224   41.7483    7.6768 N.ar    1  UNL1       -0.1332
      9 N          13.2299   42.0360    7.5351 N.ar    1  UNL1       -0.1248
     10 S          16.4215   40.4567    9.2326 S.3     1  UNL1       -0.0866
     11 C          17.1286   42.1323    9.1370 C.3     1  UNL1        0.0642
     12 C          17.8789   42.3462    7.8298 C.3     1  UNL1        0.0121
     13 C          17.5244   43.8459    5.8673 C.3     1  UNL1        0.0000
     14 C          17.7697   43.7881    7.3625 C.3     1  UNL1        0.0009
     15 C           8.9131   42.7774    9.3395 C.ar    1  UNL1        0.1764
     16 C           6.8247   42.3328    9.6035 C.ar    1  UNL1        0.1770
     17 C           8.0780   41.7930    9.8404 C.ar    1  UNL1        0.0672
     18 N           8.1980   43.8075    8.8502 N.ar    1  UNL1       -0.0723
     19 O           6.9480   43.5049    9.0261 O.2     1  UNL1       -0.3533
     20 C           5.5349   41.7095    9.9375 C.ar    1  UNL1        0.0372
     21 C           5.3866   41.0132   11.1446 C.ar    1  UNL1        0.0031
     22 C           4.1642   40.4176   11.4701 C.ar    1  UNL1        0.0001
     23 C           3.0829   40.5151   10.5899 C.ar    1  UNL1        0.0000
     24 C           3.2234   41.2079    9.3842 C.ar    1  UNL1        0.0001
     25 C           4.4457   41.8035    9.0586 C.ar    1  UNL1        0.0031
@<TRIPOS>BOND
     1    13    14    1
     2    14    12    1
     3    12    11    1
     4    11    10    1
     5     5    10    1
     6     5     7   ar
     7     6     2    1
     8     6     7   ar
     9     1    15    1
    10    16    19   ar
    11    16    20    1
    12    17    15   ar
    13    21    22   ar
    14    23    24   ar
    15    25    20   ar
    16     8     9   ar
    17     2     1   am
    18    18    19   ar
    19     5     8   ar
    20     6     9   ar
    21     1     3    2
    22    15    18   ar
    23    16    17   ar
    24    20    21   ar
    25    22    23   ar
    26    24    25   ar
    27     2     4    1
@<TRIPOS>MOLECULE
MolPort-004-886-863 11917139 CSSS00160882810 ChemDiv-D337-0195 LN01984288 MCULE-1689293103 PubChem-16455803 ZINC000011917139 ZINC11917139
 25 27 0 0 0
SMALL
GASTEIGER

@<TRIPOS>ATOM
      1 C          11.8798   41.4304    9.5340 C.2     1  UNL1        0.2720
      2 N          10.6705   41.6445   10.2711 N.am    1  UNL1       -0.2579
      3 O          12.0575   41.9821    8.4142 O.2     1  UNL1       -0.2680
      4 H          10.5815   41.1906   11.1402 H       1  UNL1        0.1572
      5 C           7.5709   43.4336    8.9899 C.ar    1  UNL1        0.1606
      6 C           9.5819   42.4672    9.8412 C.ar    1  UNL1        0.1888
      7 S           8.1820   41.8693    9.1248 S.2     1  UNL1       -0.0241
      8 N           8.4280   44.3507    9.4882 N.ar    1  UNL1       -0.1332
      9 N           9.5506   43.8132    9.9617 N.ar    1  UNL1       -0.1248
     10 S           5.9751   43.8451    8.2953 S.3     1  UNL1       -0.0866
     11 C           5.0646   42.9126    9.5673 C.3     1  UNL1        0.0642
     12 C           3.5857   42.8008    9.2239 C.3     1  UNL1        0.0121
     13 C           3.5245   41.8358   11.5241 C.3     1  UNL1        0.0000
     14 C           2.8773   41.8290   10.1529 C.3     1  UNL1        0.0009
     15 C          12.9208   40.5598   10.0908 C.ar    1  UNL1        0.1764
     16 C          14.7300   39.4456   10.4287 C.ar    1  UNL1        0.1770
     17 C          14.1549   40.3119    9.5138 C.ar    1  UNL1        0.0672
     18 N          12.7917   39.8885   11.2503 N.ar    1  UNL1       -0.0723
     19 O          13.8977   39.2305   11.4204 O.2     1  UNL1       -0.3533
     20 C          16.0682   38.8429   10.3296 C.ar    1  UNL1        0.0372
     21 C          16.2078   37.5178    9.8954 C.ar    1  UNL1        0.0031
     22 C          17.4759   36.9370    9.7982 C.ar    1  UNL1        0.0001
     23 C          18.6119   37.6784   10.1349 C.ar    1  UNL1        0.0000
     24 C          18.4804   39.0004   10.5688 C.ar    1  UNL1        0.0001
     25 C          17.2124   39.5814   10.6659 C.ar    1  UNL1        0.0031
@<TRIPOS>BOND
     1    13    14    1
     2    14    12    1
     3    12    11    1
     4    11    10    1
     5     5    10    1
     6     5     7   ar
     7     6     2    1
     8     6     7   ar
     9     1    15    1
    10    16    19   ar
    11    16    20    1
    12    17    15   ar
    13    21    22   ar
    14    23    24   ar
    15    25    20   ar
    16     8     9   ar
    17     2     1   am
    18    18    19   ar
    19     5     8   ar
    20     6     9   ar
    21     1     3    2
    22    15    18   ar
    23    16    17   ar
    24    20    21   ar
    25    22    23   ar
    26    24    25   ar
    27     2     4    1
@<TRIPOS>MOLECULE
MolPort-004-886-863 11917139 CSSS00160882810 ChemDiv-D337-0195 LN01984288 MCULE-1689293103 PubChem-16455803 ZINC000011917139 ZINC11917139
 25 27 0 0 0
SMALL
GASTEIGER

@<TRIPOS>ATOM
      1 C          12.1999   41.0910    9.6494 C.2     1  UNL1        0.2720
      2 N          11.2897   41.7545   10.5343 N.am    1  UNL1       -0.2579
      3 O          12.0832   41.2079    8.3994 O.2     1  UNL1       -0.2680
      4 H          11.4246   41.6307   11.5016 H       1  UNL1        0.1572
      5 C           8.1795   43.5603    9.3033 C.ar    1  UNL1        0.1606
      6 C          10.1996   42.5833   10.1202 C.ar    1  UNL1        0.1888
      7 S           8.7793   41.9917    9.4395 S.2     1  UNL1       -0.0241
      8 N           9.0554   44.4740    9.7745 N.ar    1  UNL1       -0.1332
      9 N          10.1830   43.9305   10.2288 N.ar    1  UNL1       -0.1248
     10 S           6.5729   43.9802    8.6392 S.3     1  UNL1       -0.0866
     11 C           6.3670   42.3600    7.8334 C.3     1  UNL1        0.0642
     12 C           6.9629   42.3552    6.4326 C.3     1  UNL1        0.0121
     13 C           6.4174   39.9204    6.4300 C.3     1  UNL1        0.0000
     14 C           7.4445   40.9671    6.0446 C.3     1  UNL1        0.0009
     15 C          13.2785   40.2676   10.2066 C.ar    1  UNL1        0.1764
     16 C          15.1213   39.2048   10.5276 C.ar    1  UNL1        0.1770
     17 C          14.4950   40.0152    9.5953 C.ar    1  UNL1        0.0672
     18 N          13.2063   39.6506   11.4008 N.ar    1  UNL1       -0.0723
     19 O          14.3311   39.0222   11.5595 O.2     1  UNL1       -0.3533
     20 C          16.4669   38.6230   10.4061 C.ar    1  UNL1        0.0372
     21 C          17.5943   39.4005   10.7037 C.ar    1  UNL1        0.0031
     22 C          18.8770   38.8555   10.5910 C.ar    1  UNL1        0.0001
     23 C          19.0394   37.5297   10.1797 C.ar    1  UNL1        0.0000
     24 C          17.9197   36.7484    9.8811 C.ar    1  UNL1        0.0001
     25 C          16.6370   37.2931    9.9939 C.ar    1  UNL1        0.0031
@<TRIPOS>BOND
     1    13    14    1
     2    14    12    1
     3    12    11    1
     4    11    10    1
     5     5    10    1
     6     5     7   ar
     7     6     2    1
     8     6     7   ar
     9     1    15    1
    10    16    19   ar
    11    16    20    1
    12    17    15   ar
    13    21    22   ar
    14    23    24   ar
    15    25    20   ar
    16     8     9   ar
    17     2     1   am
    18    18    19   ar
    19     5     8   ar
    20     6     9   ar
    21     1     3    2
    22    15    18   ar
    23    16    17   ar
    24    20    21   ar
    25    22    23   ar
    26    24    25   ar
    27     2     4    1
@<TRIPOS>MOLECULE
MolPort-004-886-863 11917139 CSSS00160882810 ChemDiv-D337-0195 LN01984288 MCULE-1689293103 PubChem-16455803 ZINC000011917139 ZINC11917139
 25 27 0 0 0
SMALL
GASTEIGER

@<TRIPOS>ATOM
      1 C          12.0108   41.4538    8.7236 C.2     1  UNL1        0.2720
      2 N          10.7015   41.3160    9.2878 N.am    1  UNL1       -0.2579
      3 O          12.3380   42.5022    8.1042 O.2     1  UNL1       -0.2680
      4 H          10.4967   40.4777    9.7616 H       1  UNL1        0.1572
      5 C           7.7411   43.6494    8.7969 C.ar    1  UNL1        0.1606
      6 C           9.6686   42.3032    9.2155 C.ar    1  UNL1        0.1888
      7 S           8.2823   42.1413    8.2762 S.2     1  UNL1       -0.0241
      8 N           8.6089   44.2227    9.6585 N.ar    1  UNL1       -0.1332
      9 N           9.6850   43.4737    9.8914 N.ar    1  UNL1       -0.1248
     10 S           6.1984   44.4038    8.2977 S.3     1  UNL1       -0.0866
     11 C           5.2506   42.8663    8.5313 C.3     1  UNL1        0.0642
     12 C           4.0001   43.1046    9.3661 C.3     1  UNL1        0.0121
     13 C           3.9453   40.7690   10.2422 C.3     1  UNL1        0.0000
     14 C           3.1727   41.8361    9.4916 C.3     1  UNL1        0.0009
     15 C          12.9793   40.3618    8.8700 C.ar    1  UNL1        0.1764
     16 C          13.9352   38.4366    8.9624 C.ar    1  UNL1        0.1770
     17 C          12.6988   39.0136    8.7247 C.ar    1  UNL1        0.0672
     18 N          14.2781   40.5504    9.1689 N.ar    1  UNL1       -0.0723
     19 O          14.8204   39.3719    9.2160 O.2     1  UNL1       -0.3533
     20 C          14.2391   36.9976    8.9407 C.ar    1  UNL1        0.0372
     21 C          15.3968   36.5370    8.2992 C.ar    1  UNL1        0.0031
     22 C          15.6934   35.1709    8.2737 C.ar    1  UNL1        0.0001
     23 C          14.8335   34.2574    8.8898 C.ar    1  UNL1        0.0000
     24 C          13.6770   34.7093    9.5314 C.ar    1  UNL1        0.0001
     25 C          13.3804   36.0754    9.5570 C.ar    1  UNL1        0.0031
@<TRIPOS>BOND
     1    13    14    1
     2    14    12    1
     3    12    11    1
     4    11    10    1
     5     5    10    1
     6     5     7   ar
     7     6     2    1
     8     6     7   ar
     9     1    15    1
    10    16    19   ar
    11    16    20    1
    12    17    15   ar
    13    21    22   ar
    14    23    24   ar
    15    25    20   ar
    16     8     9   ar
    17     2     1   am
    18    18    19   ar
    19     5     8   ar
    20     6     9   ar
    21     1     3    2
    22    15    18   ar
    23    16    17   ar
    24    20    21   ar
    25    22    23   ar
    26    24    25   ar
    27     2     4    1
@<TRIPOS>MOLECULE
MolPort-004-886-863 11917139 CSSS00160882810 ChemDiv-D337-0195 LN01984288 MCULE-1689293103 PubChem-16455803 ZINC000011917139 ZINC11917139
 25 27 0 0 0
SMALL
GASTEIGER

@<TRIPOS>ATOM
      1 C          10.3855   41.6250    7.4224 C.2     1  UNL1        0.2720
      2 N           9.6361   41.9933    8.5862 N.am    1  UNL1       -0.2579
      3 O           9.8018   41.3752    6.3331 O.2     1  UNL1       -0.2680
      4 H          10.1400   42.1782    9.4115 H       1  UNL1        0.1572
      5 C           5.9197   42.7749    8.7501 C.ar    1  UNL1        0.1606
      6 C           8.2116   42.1130    8.6411 C.ar    1  UNL1        0.1888
      7 S           7.3979   43.5830    8.7275 S.2     1  UNL1       -0.0241
      8 N           6.0803   41.4353    8.6872 N.ar    1  UNL1       -0.1332
      9 N           7.3580   41.0649    8.6281 N.ar    1  UNL1       -0.1248
     10 S           4.3233   43.5776    8.8252 S.3     1  UNL1       -0.0866
     11 C           3.4584   42.0450    9.2939 C.3     1  UNL1        0.0642
     12 C           2.8100   42.1689   10.6656 C.3     1  UNL1        0.0121
     13 C           4.0732   40.1270   11.3445 C.3     1  UNL1        0.0000
     14 C           3.6752   41.5351   11.7422 C.3     1  UNL1        0.0009
     15 C          11.8477   41.5389    7.5020 C.ar    1  UNL1        0.1764
     16 C          13.9558   41.9656    7.4511 C.ar    1  UNL1        0.1770
     17 C          12.7301   42.5694    7.2249 C.ar    1  UNL1        0.0672
     18 N          12.5119   40.4243    7.8606 N.ar    1  UNL1       -0.0723
     19 O          13.7755   40.7186    7.8186 O.2     1  UNL1       -0.3533
     20 C          15.2748   42.6009    7.3087 C.ar    1  UNL1        0.0372
     21 C          15.4721   43.5928    6.3385 C.ar    1  UNL1        0.0031
     22 C          16.7225   44.2020    6.1962 C.ar    1  UNL1        0.0001
     23 C          17.7831   43.8224    7.0237 C.ar    1  UNL1        0.0000
     24 C          17.5938   42.8339    7.9933 C.ar    1  UNL1        0.0001
     25 C          16.3435   42.2247    8.1358 C.ar    1  UNL1        0.0031
@<TRIPOS>BOND
     1    13    14    1
     2    14    12    1
     3    12    11    1
     4    11    10    1
     5     5    10    1
     6     5     7   ar
     7     6     2    1
     8     6     7   ar
     9     1    15    1
    10    16    19   ar
    11    16    20    1
    12    17    15   ar
    13    21    22   ar
    14    23    24   ar
    15    25    20   ar
    16     8     9   ar
    17     2     1   am
    18    18    19   ar
    19     5     8   ar
    20     6     9   ar
    21     1     3    2
    22    15    18   ar
    23    16    17   ar
    24    20    21   ar
    25    22    23   ar
    26    24    25   ar
    27     2     4    1
@<TRIPOS>MOLECULE
MolPort-004-886-863 11917139 CSSS00160882810 ChemDiv-D337-0195 LN01984288 MCULE-1689293103 PubChem-16455803 ZINC000011917139 ZINC11917139
 25 27 0 0 0
SMALL
GASTEIGER

@<TRIPOS>ATOM
      1 C          10.7339   42.0128    9.6360 C.2     1  UNL1        0.2720
      2 N          11.0269   40.8141   10.3633 N.am    1  UNL1       -0.2579
      3 O          11.6554   42.6709    9.0815 O.2     1  UNL1       -0.2680
      4 H          10.2714   40.3375   10.7773 H       1  UNL1        0.1572
      5 C          14.5752   39.4508   10.3705 C.ar    1  UNL1        0.1606
      6 C          12.3331   40.2563   10.5342 C.ar    1  UNL1        0.1888
      7 S          13.5010   40.2182    9.3238 S.2     1  UNL1       -0.0241
      8 N          14.0304   39.2525   11.5904 N.ar    1  UNL1       -0.1332
      9 N          12.7795   39.6998   11.6823 N.ar    1  UNL1       -0.1248
     10 S          16.2440   38.9709    9.9423 S.3     1  UNL1       -0.0866
     11 C          15.8331   37.1974    9.8948 C.3     1  UNL1        0.0642
     12 C          14.5662   36.9408    9.0907 C.3     1  UNL1        0.0121
     13 C          12.2196   36.4399    9.7750 C.3     1  UNL1        0.0000
     14 C          13.6552   35.9527    9.8001 C.3     1  UNL1        0.0009
     15 C           9.3459   42.4768    9.5369 C.ar    1  UNL1        0.1764
     16 C           7.1982   42.6007    9.5058 C.ar    1  UNL1        0.1770
     17 C           8.2205   41.6861    9.6971 C.ar    1  UNL1        0.0672
     18 N           9.0013   43.7510    9.2730 N.ar    1  UNL1       -0.0723
     19 O           7.7037   43.7872    9.2621 O.2     1  UNL1       -0.3533
     20 C           5.7565   42.3140    9.5612 C.ar    1  UNL1        0.0372
     21 C           5.3076   41.0784   10.0466 C.ar    1  UNL1        0.0031
     22 C           3.9390   40.7974   10.1028 C.ar    1  UNL1        0.0001
     23 C           3.0116   41.7509    9.6736 C.ar    1  UNL1        0.0000
     24 C           3.4520   42.9853    9.1882 C.ar    1  UNL1        0.0001
     25 C           4.8204   43.2664    9.1321 C.ar    1  UNL1        0.0031
@<TRIPOS>BOND
     1    13    14    1
     2    14    12    1
     3    12    11    1
     4    11    10    1
     5     5    10    1
     6     5     7   ar
     7     6     2    1
     8     6     7   ar
     9     1    15    1
    10    16    19   ar
    11    16    20    1
    12    17    15   ar
    13    21    22   ar
    14    23    24   ar
    15    25    20   ar
    16     8     9   ar
    17     2     1   am
    18    18    19   ar
    19     5     8   ar
    20     6     9   ar
    21     1     3    2
    22    15    18   ar
    23    16    17   ar
    24    20    21   ar
    25    22    23   ar
    26    24    25   ar
    27     2     4    1
@<TRIPOS>MOLECULE
MolPort-004-886-863 11917139 CSSS00160882810 ChemDiv-D337-0195 LN01984288 MCULE-1689293103 PubChem-16455803 ZINC000011917139 ZINC11917139
 25 27 0 0 0
SMALL
GASTEIGER

@<TRIPOS>ATOM
      1 C          11.9416   39.9408   10.2004 C.2     1  UNL1        0.2720
      2 N          11.8997   41.3245    9.8326 N.am    1  UNL1       -0.2579
      3 O          10.8769   39.2885   10.3758 O.2     1  UNL1       -0.2680
      4 H          12.7593   41.7878    9.7076 H       1  UNL1        0.1572
      5 C           8.6257   43.0451    8.9549 C.ar    1  UNL1        0.1606
      6 C          10.7044   42.0847    9.6330 C.ar    1  UNL1        0.1888
      7 S           9.5543   41.7303    8.4573 S.2     1  UNL1       -0.0241
      8 N           9.2005   43.7028    9.9851 N.ar    1  UNL1       -0.1332
      9 N          10.3605   43.1692   10.3630 N.ar    1  UNL1       -0.1248
     10 S           7.0577   43.5134    8.2335 S.3     1  UNL1       -0.0866
     11 C           6.0933   42.5982    9.4781 C.3     1  UNL1        0.0642
     12 C           5.1631   41.5845    8.8265 C.3     1  UNL1        0.0121
     13 C           4.8610   41.1104   11.2575 C.3     1  UNL1        0.0000
     14 C           4.3110   40.8733    9.8645 C.3     1  UNL1        0.0009
     15 C          13.2389   39.2783   10.3737 C.ar    1  UNL1        0.1764
     16 C          15.0226   38.1075   10.0973 C.ar    1  UNL1        0.1770
     17 C          13.8518   38.4551    9.4441 C.ar    1  UNL1        0.0672
     18 N          13.9968   39.3977   11.4797 N.ar    1  UNL1       -0.0723
     19 O          15.0599   38.6808   11.2773 O.2     1  UNL1       -0.3533
     20 C          16.0808   37.2309    9.5724 C.ar    1  UNL1        0.0372
     21 C          17.3742   37.2985   10.1077 C.ar    1  UNL1        0.0031
     22 C          18.3861   36.4689    9.6149 C.ar    1  UNL1        0.0001
     23 C          18.1101   35.5669    8.5836 C.ar    1  UNL1        0.0000
     24 C          16.8226   35.4940    8.0447 C.ar    1  UNL1        0.0001
     25 C          15.8106   36.3233    8.5375 C.ar    1  UNL1        0.0031
@<TRIPOS>BOND
     1    13    14    1
     2    14    12    1
     3    12    11    1
     4    11    10    1
     5     5    10    1
     6     5     7   ar
     7     6     2    1
     8     6     7   ar
     9     1    15    1
    10    16    19   ar
    11    16    20    1
    12    17    15   ar
    13    21    22   ar
    14    23    24   ar
    15    25    20   ar
    16     8     9   ar
    17     2     1   am
    18    18    19   ar
    19     5     8   ar
    20     6     9   ar
    21     1     3    2
    22    15    18   ar
    23    16    17   ar
    24    20    21   ar
    25    22    23   ar
    26    24    25   ar
    27     2     4    1
@<TRIPOS>MOLECULE
MolPort-004-886-863 11917139 CSSS00160882810 ChemDiv-D337-0195 LN01984288 MCULE-1689293103 PubChem-16455803 ZINC000011917139 ZINC11917139
 25 27 0 0 0
SMALL
GASTEIGER

@<TRIPOS>ATOM
      1 C          12.9770   39.8562    8.9529 C.2     1  UNL1        0.2720
      2 N          12.0007   39.7849    7.9072 N.am    1  UNL1       -0.2579
      3 O          12.8929   40.7345    9.8536 O.2     1  UNL1       -0.2680
      4 H          12.1121   39.0804    7.2286 H       1  UNL1        0.1572
      5 C           8.9797   42.0895    8.0190 C.ar    1  UNL1        0.1606
      6 C          10.8761   40.6590    7.7734 C.ar    1  UNL1        0.1888
      7 S           9.9777   41.2352    9.0739 S.2     1  UNL1       -0.0241
      8 N           9.3518   41.9218    6.7315 N.ar    1  UNL1       -0.1332
      9 N          10.4082   41.1230    6.5932 N.ar    1  UNL1       -0.1248
     10 S           7.6055   43.1154    8.5263 S.3     1  UNL1       -0.0866
     11 C           7.2618   42.1060   10.0026 C.3     1  UNL1        0.0642
     12 C           5.9037   41.4247    9.9074 C.3     1  UNL1        0.0121
     13 C           4.0654   40.3146   11.1778 C.3     1  UNL1        0.0000
     14 C           5.3354   41.1357   11.2868 C.3     1  UNL1        0.0009
     15 C          14.0851   38.8952    8.9735 C.ar    1  UNL1        0.1764
     16 C          15.2853   37.1120    8.8811 C.ar    1  UNL1        0.1770
     17 C          13.9731   37.5339    8.7459 C.ar    1  UNL1        0.0672
     18 N          15.3638   39.2348    9.2215 N.ar    1  UNL1       -0.0723
     19 O          16.0555   38.1382    9.1576 O.2     1  UNL1       -0.3533
     20 C          15.7707   35.7305    8.7417 C.ar    1  UNL1        0.0372
     21 C          14.8578   34.6674    8.7214 C.ar    1  UNL1        0.0031
     22 C          15.3104   33.3511    8.5893 C.ar    1  UNL1        0.0001
     23 C          16.6789   33.0905    8.4767 C.ar    1  UNL1        0.0000
     24 C          17.5952   34.1456    8.4962 C.ar    1  UNL1        0.0001
     25 C          17.1428   35.4619    8.6283 C.ar    1  UNL1        0.0031
@<TRIPOS>BOND
     1    13    14    1
     2    14    12    1
     3    12    11    1
     4    11    10    1
     5     5    10    1
     6     5     7   ar
     7     6     2    1
     8     6     7   ar
     9     1    15    1
    10    16    19   ar
    11    16    20    1
    12    17    15   ar
    13    21    22   ar
    14    23    24   ar
    15    25    20   ar
    16     8     9   ar
    17     2     1   am
    18    18    19   ar
    19     5     8   ar
    20     6     9   ar
    21     1     3    2
    22    15    18   ar
    23    16    17   ar
    24    20    21   ar
    25    22    23   ar
    26    24    25   ar
    27     2     4    1
@<TRIPOS>MOLECULE
MolPort-004-886-863 11917139 CSSS00160882810 ChemDiv-D337-0195 LN01984288 MCULE-1689293103 PubChem-16455803 ZINC000011917139 ZINC11917139
 25 27 0 0 0
SMALL
GASTEIGER

@<TRIPOS>ATOM
      1 C          10.0010   42.5201    8.9855 C.2     1  UNL1        0.2720
      2 N           9.1175   42.3402    7.8725 N.am    1  UNL1       -0.2579
      3 O           9.6485   43.2060    9.9830 O.2     1  UNL1       -0.2680
      4 H           9.4410   41.7956    7.1188 H       1  UNL1        0.1572
      5 C           5.5487   43.6384    8.0381 C.ar    1  UNL1        0.1606
      6 C           7.8012   42.8913    7.7720 C.ar    1  UNL1        0.1888
      7 S           6.6495   42.7946    8.9946 S.2     1  UNL1       -0.0241
      8 N           6.0771   43.9697    6.8401 N.ar    1  UNL1       -0.1332
      9 N           7.3326   43.5522    6.6899 N.ar    1  UNL1       -0.1248
     10 S           3.8876   44.0706    8.5406 S.3     1  UNL1       -0.0866
     11 C           3.8593   42.8358    9.8789 C.3     1  UNL1        0.0642
     12 C           3.1740   41.5506    9.4362 C.3     1  UNL1        0.0121
     13 C           4.4889   40.8472   11.4367 C.3     1  UNL1        0.0000
     14 C           3.5140   40.3976   10.3659 C.3     1  UNL1        0.0009
     15 C          11.3292   41.8980    8.9616 C.ar    1  UNL1        0.1764
     16 C          13.1228   40.8191    9.4593 C.ar    1  UNL1        0.1770
     17 C          11.8922   41.1646    9.9925 C.ar    1  UNL1        0.0672
     18 N          12.1696   41.9713    7.9127 N.ar    1  UNL1       -0.0723
     19 O          13.2362   41.3118    8.2481 O.2     1  UNL1       -0.3533
     20 C          14.1639   40.0222   10.1263 C.ar    1  UNL1        0.0372
     21 C          15.4495   39.9485    9.5735 C.ar    1  UNL1        0.0031
     22 C          16.4451   39.1933   10.2008 C.ar    1  UNL1        0.0001
     23 C          16.1604   38.5075   11.3848 C.ar    1  UNL1        0.0000
     24 C          14.8805   38.5763   11.9419 C.ar    1  UNL1        0.0001
     25 C          13.8849   39.3314   11.3148 C.ar    1  UNL1        0.0031
@<TRIPOS>BOND
     1    13    14    1
     2    14    12    1
     3    12    11    1
     4    11    10    1
     5     5    10    1
     6     5     7   ar
     7     6     2    1
     8     6     7   ar
     9     1    15    1
    10    16    19   ar
    11    16    20    1
    12    17    15   ar
    13    21    22   ar
    14    23    24   ar
    15    25    20   ar
    16     8     9   ar
    17     2     1   am
    18    18    19   ar
    19     5     8   ar
    20     6     9   ar
    21     1     3    2
    22    15    18   ar
    23    16    17   ar
    24    20    21   ar
    25    22    23   ar
    26    24    25   ar
    27     2     4    1
@<TRIPOS>MOLECULE
MolPort-004-886-863 11917139 CSSS00160882810 ChemDiv-D337-0195 LN01984288 MCULE-1689293103 PubChem-16455803 ZINC000011917139 ZINC11917139
 25 27 0 0 0
SMALL
GASTEIGER

@<TRIPOS>ATOM
      1 C           4.8626   41.7755   10.8021 C.2     1  UNL1        0.2720
      2 N           5.4181   42.5585    9.7391 N.am    1  UNL1       -0.2579
      3 O           5.5575   40.9033   11.3904 O.2     1  UNL1       -0.2680
      4 H           4.8335   43.2261    9.3129 H       1  UNL1        0.1572
      5 C           8.8248   41.8863    8.1923 C.ar    1  UNL1        0.1606
      6 C           6.7574   42.4446    9.2492 C.ar    1  UNL1        0.1888
      7 S           7.2598   41.2631    8.1619 S.2     1  UNL1       -0.0241
      8 N           8.9211   42.9584    9.0080 N.ar    1  UNL1       -0.1332
      9 N           7.7693   43.2697    9.5993 N.ar    1  UNL1       -0.1248
     10 S          10.1971   41.2342    7.2489 S.3     1  UNL1       -0.0866
     11 C          11.1560   40.8123    8.7386 C.3     1  UNL1        0.0642
     12 C          12.5470   41.4296    8.6987 C.3     1  UNL1        0.0121
     13 C          14.4677   42.0518    7.2325 C.3     1  UNL1        0.0000
     14 C          13.0002   41.6720    7.2685 C.3     1  UNL1        0.0009
     15 C           3.4700   41.9935   11.2084 C.ar    1  UNL1        0.1764
     16 C           1.6676   42.3408   12.3307 C.ar    1  UNL1        0.1770
     17 C           3.0330   42.1904   12.5075 C.ar    1  UNL1        0.0672
     18 N           2.4369   42.0271   10.3462 N.ar    1  UNL1       -0.0723
     19 O           1.3708   42.2377   11.0564 O.2     1  UNL1       -0.3533
     20 C           0.6771   42.5804   13.3914 C.ar    1  UNL1        0.0372
     21 C           0.5460   43.8591   13.9497 C.ar    1  UNL1        0.0031
     22 C          -0.3929   44.0958   14.9584 C.ar    1  UNL1        0.0001
     23 C          -1.2061   43.0546   15.4145 C.ar    1  UNL1        0.0000
     24 C          -1.0809   41.7768   14.8625 C.ar    1  UNL1        0.0001
     25 C          -0.1422   41.5400   13.8538 C.ar    1  UNL1        0.0031
@<TRIPOS>BOND
     1    13    14    1
     2    14    12    1
     3    12    11    1
     4    11    10    1
     5     5    10    1
     6     5     7   ar
     7     6     2    1
     8     6     7   ar
     9     1    15    1
    10    16    19   ar
    11    16    20    1
    12    17    15   ar
    13    21    22   ar
    14    23    24   ar
    15    25    20   ar
    16     8     9   ar
    17     2     1   am
    18    18    19   ar
    19     5     8   ar
    20     6     9   ar
    21     1     3    2
    22    15    18   ar
    23    16    17   ar
    24    20    21   ar
    25    22    23   ar
    26    24    25   ar
    27     2     4    1
