@<TRIPOS>MOLECULE
Molport-047-869-455 PubChem-165915902
 20 21 0 0 0
SMALL
GASTEIGER

@<TRIPOS>ATOM
      1 C          16.3181   42.1946    8.1457 C.ar    1  UNL1        0.1802
      2 C          14.4326   41.2297    7.9909 C.ar    1  UNL1        0.1487
      3 C          13.3081   40.4215    8.0865 C.ar    1  UNL1        0.1567
      4 C          12.2748   41.7995    6.4288 C.ar    1  UNL1        0.2015
      5 C          14.4437   42.2752    7.1364 C.ar    1  UNL1        0.1677
      6 N          15.6212   42.9008    7.2155 N.ar    1  UNL1       -0.2857
      7 N          15.6044   41.1472    8.6485 N.ar    1  UNL1       -0.2194
      8 N          12.2394   40.7316    7.2899 N.ar    1  UNL1       -0.2072
      9 N          13.3894   42.5873    6.3446 N.ar    1  UNL1       -0.2048
     10 C          12.1778   38.4165    9.1755 C.2     1  UNL1        0.2277
     11 C          12.2986   37.3022   10.1509 C.3     1  UNL1        0.0950
     12 O          11.1067   38.5591    8.5286 O.2     1  UNL1       -0.2747
     13 N          13.2817   39.3084    8.9882 N.am    1  UNL1       -0.2680
     14 H          14.0908   39.1430    9.5242 H       1  UNL1        0.1563
     15 C          17.3789   43.8105    5.7660 C.3     1  UNL1        0.0367
     16 C          16.0519   44.0717    6.4584 C.3     1  UNL1        0.1868
     17 C          15.0080   44.4871    5.4740 C.2     1  UNL1        0.3347
     18 O          14.2652   45.4694    5.7312 O.2     1  UNL1       -0.2482
     19 O          14.8459   43.7938    4.2804 O.3     1  UNL1       -0.4789
     20 H          15.3972   43.0617    4.0853 H       1  UNL1        0.2951
@<TRIPOS>BOND
     1    16    15    1
     2    16    17    1
     3    16     6    1
     4    17    19    1
     5     2     7   ar
     6     3     8   ar
     7     3    13    1
     8     4     9   ar
     9     5     6   ar
    10     5     2   ar
    11    11    10    1
    12     6     1   ar
    13    13    10   am
    14    17    18    2
    15     1     7   ar
    16     2     3   ar
    17     4     8   ar
    18     5     9   ar
    19    10    12    2
    20    19    20    1
    21    13    14    1
@<TRIPOS>MOLECULE
Molport-047-869-455 PubChem-165915902
 20 21 0 0 0
SMALL
GASTEIGER

@<TRIPOS>ATOM
      1 C          14.4681   42.7244    7.2081 C.ar    1  UNL1        0.1802
      2 C          14.8995   41.0017    8.3725 C.ar    1  UNL1        0.1487
      3 C          14.9165   39.7961    9.0603 C.ar    1  UNL1        0.1567
      4 C          17.1331   40.3291    9.7795 C.ar    1  UNL1        0.2015
      5 C          15.9759   41.8162    8.4081 C.ar    1  UNL1        0.1677
      6 N          15.7299   42.9092    7.6808 N.ar    1  UNL1       -0.2857
      7 N          13.9235   41.5445    7.6209 N.ar    1  UNL1       -0.2194
      8 N          16.0517   39.4844    9.7581 N.ar    1  UNL1       -0.2072
      9 N          17.1025   41.5140    9.0975 N.ar    1  UNL1       -0.2048
     10 C          12.6998   38.9338    9.9694 C.2     1  UNL1        0.2277
     11 C          11.5875   37.9616    9.8108 C.3     1  UNL1        0.0950
     12 O          12.6736   39.7533   10.9252 O.2     1  UNL1       -0.2747
     13 N          13.7818   38.9216    9.0323 N.am    1  UNL1       -0.2680
     14 H          13.7430   38.2565    8.3075 H       1  UNL1        0.1563
     15 C          18.0535   43.6834    7.8204 C.3     1  UNL1        0.0367
     16 C          16.6216   44.0434    7.4616 C.3     1  UNL1        0.1868
     17 C          16.5302   44.5325    6.0531 C.2     1  UNL1        0.3347
     18 O          17.2239   43.9853    5.1576 O.2     1  UNL1       -0.2482
     19 O          15.6910   45.5908    5.7251 O.3     1  UNL1       -0.4789
     20 H          15.1728   46.0009    6.3893 H       1  UNL1        0.2951
@<TRIPOS>BOND
     1    16    15    1
     2    16    17    1
     3    16     6    1
     4    17    19    1
     5     2     7   ar
     6     3     8   ar
     7     3    13    1
     8     4     9   ar
     9     5     6   ar
    10     5     2   ar
    11    11    10    1
    12     6     1   ar
    13    13    10   am
    14    17    18    2
    15     1     7   ar
    16     2     3   ar
    17     4     8   ar
    18     5     9   ar
    19    10    12    2
    20    19    20    1
    21    13    14    1
@<TRIPOS>MOLECULE
Molport-047-869-455 PubChem-165915902
 20 21 0 0 0
SMALL
GASTEIGER

@<TRIPOS>ATOM
      1 C          15.2976   39.7411    9.6368 C.ar    1  UNL1        0.1802
      2 C          14.4292   40.9937    8.1580 C.ar    1  UNL1        0.1487
      3 C          14.1055   41.9599    7.2155 C.ar    1  UNL1        0.1567
      4 C          12.0083   40.8522    6.9169 C.ar    1  UNL1        0.2015
      5 C          13.5522   40.0078    8.4448 C.ar    1  UNL1        0.1677
      6 N          14.0762   39.2038    9.3738 N.ar    1  UNL1       -0.2857
      7 N          15.5477   40.8572    8.8945 N.ar    1  UNL1       -0.2194
      8 N          12.8829   41.8636    6.6082 N.ar    1  UNL1       -0.2072
      9 N          12.3401   39.9070    7.8478 N.ar    1  UNL1       -0.2048
     10 C          14.7324   44.1599    6.0971 C.2     1  UNL1        0.2277
     11 C          15.7935   45.1720    5.8574 C.3     1  UNL1        0.0950
     12 O          13.5920   44.3272    5.5898 O.2     1  UNL1       -0.2747
     13 N          15.0255   43.0124    6.9010 N.am    1  UNL1       -0.2680
     14 H          15.9359   42.9402    7.2687 H       1  UNL1        0.1563
     15 C          13.6987   36.7942    9.1107 C.3     1  UNL1        0.0367
     16 C          13.4590   38.0237    9.9707 C.3     1  UNL1        0.1868
     17 C          13.9536   37.8067   11.3634 C.2     1  UNL1        0.3347
     18 O          14.0342   38.7815   12.1546 O.2     1  UNL1       -0.2482
     19 O          14.3316   36.5391   11.7900 O.3     1  UNL1       -0.4789
     20 H          14.2729   35.8106   11.2037 H       1  UNL1        0.2951
@<TRIPOS>BOND
     1    16    15    1
     2    16    17    1
     3    16     6    1
     4    17    19    1
     5     2     7   ar
     6     3     8   ar
     7     3    13    1
     8     4     9   ar
     9     5     6   ar
    10     5     2   ar
    11    11    10    1
    12     6     1   ar
    13    13    10   am
    14    17    18    2
    15     1     7   ar
    16     2     3   ar
    17     4     8   ar
    18     5     9   ar
    19    10    12    2
    20    19    20    1
    21    13    14    1
@<TRIPOS>MOLECULE
Molport-047-869-455 PubChem-165915902
 20 21 0 0 0
SMALL
GASTEIGER

@<TRIPOS>ATOM
      1 C          13.8692   40.0344    9.9863 C.ar    1  UNL1        0.1802
      2 C          13.9019   41.2656    8.2562 C.ar    1  UNL1        0.1487
      3 C          14.2008   42.1003    7.1882 C.ar    1  UNL1        0.1567
      4 C          11.9022   41.9689    6.5453 C.ar    1  UNL1        0.2015
      5 C          12.6403   40.8176    8.4323 C.ar    1  UNL1        0.1677
      6 N          12.5931   40.0383    9.5161 N.ar    1  UNL1       -0.2857
      7 N          14.7093   40.7895    9.2226 N.ar    1  UNL1       -0.2194
      8 N          13.1766   42.4367    6.3452 N.ar    1  UNL1       -0.2072
      9 N          11.6217   41.1474    7.6019 N.ar    1  UNL1       -0.2048
     10 C          15.8910   43.7612    6.2563 C.2     1  UNL1        0.2277
     11 C          17.3231   44.1380    6.1345 C.3     1  UNL1        0.0950
     12 O          15.0131   44.4828    5.7138 O.2     1  UNL1       -0.2747
     13 N          15.5347   42.5840    6.9887 N.am    1  UNL1       -0.2680
     14 H          16.2678   42.0629    7.3890 H       1  UNL1        0.1563
     15 C          10.2698   40.3309   10.2474 C.3     1  UNL1        0.0367
     16 C          11.4239   39.3595   10.0656 C.3     1  UNL1        0.1868
     17 C          11.0212   38.2056    9.2066 C.2     1  UNL1        0.3347
     18 O          11.2486   37.0308    9.5950 O.2     1  UNL1       -0.2482
     19 O          10.4041   38.4190    7.9797 O.3     1  UNL1       -0.4789
     20 H          10.2331   39.2925    7.6869 H       1  UNL1        0.2951
@<TRIPOS>BOND
     1    16    15    1
     2    16    17    1
     3    16     6    1
     4    17    19    1
     5     2     7   ar
     6     3     8   ar
     7     3    13    1
     8     4     9   ar
     9     5     6   ar
    10     5     2   ar
    11    11    10    1
    12     6     1   ar
    13    13    10   am
    14    17    18    2
    15     1     7   ar
    16     2     3   ar
    17     4     8   ar
    18     5     9   ar
    19    10    12    2
    20    19    20    1
    21    13    14    1
@<TRIPOS>MOLECULE
Molport-047-869-455 PubChem-165915902
 20 21 0 0 0
SMALL
GASTEIGER

@<TRIPOS>ATOM
      1 C          16.1104   42.2435    8.0412 C.ar    1  UNL1        0.1802
      2 C          14.3576   41.0681    8.2788 C.ar    1  UNL1        0.1487
      3 C          13.3519   40.1899    8.6582 C.ar    1  UNL1        0.1567
      4 C          12.0656   40.9894    6.8087 C.ar    1  UNL1        0.2015
      5 C          14.1905   41.8629    7.2000 C.ar    1  UNL1        0.1677
      6 N          15.2812   42.6147    7.0291 N.ar    1  UNL1       -0.2857
      7 N          15.5633   41.2818    8.8382 N.ar    1  UNL1       -0.2194
      8 N          12.2119   40.1721    7.9013 N.ar    1  UNL1       -0.2072
      9 N          13.0647   41.8497    6.4461 N.ar    1  UNL1       -0.2048
     10 C          14.3881   38.2084    9.8761 C.2     1  UNL1        0.2277
     11 C          14.4504   37.4190   11.1335 C.3     1  UNL1        0.0950
     12 O          15.1042   37.8699    8.8971 O.2     1  UNL1       -0.2747
     13 N          13.5149   39.3401    9.8002 N.am    1  UNL1       -0.2680
     14 H          12.9815   39.5524   10.6000 H       1  UNL1        0.1563
     15 C          14.5113   44.7350    6.0650 C.3     1  UNL1        0.0367
     16 C          15.5187   43.6007    5.9799 C.3     1  UNL1        0.1868
     17 C          16.9172   44.1222    6.0412 C.2     1  UNL1        0.3347
     18 O          17.7107   43.8898    5.0930 O.2     1  UNL1       -0.2482
     19 O          17.3509   44.8555    7.1393 O.3     1  UNL1       -0.4789
     20 H          16.7629   45.0306    7.8475 H       1  UNL1        0.2951
@<TRIPOS>BOND
     1    16    15    1
     2    16    17    1
     3    16     6    1
     4    17    19    1
     5     2     7   ar
     6     3     8   ar
     7     3    13    1
     8     4     9   ar
     9     5     6   ar
    10     5     2   ar
    11    11    10    1
    12     6     1   ar
    13    13    10   am
    14    17    18    2
    15     1     7   ar
    16     2     3   ar
    17     4     8   ar
    18     5     9   ar
    19    10    12    2
    20    19    20    1
    21    13    14    1
@<TRIPOS>MOLECULE
Molport-047-869-455 PubChem-165915902
 20 21 0 0 0
SMALL
GASTEIGER

@<TRIPOS>ATOM
      1 C          11.5448   39.5011    8.8803 C.ar    1  UNL1        0.1802
      2 C          10.3972   40.9721    9.8948 C.ar    1  UNL1        0.1487
      3 C           9.7476   41.8067   10.7938 C.ar    1  UNL1        0.1567
      4 C           8.8052   42.9573    8.9223 C.ar    1  UNL1        0.2015
      5 C          10.2348   41.1515    8.5663 C.ar    1  UNL1        0.1677
      6 N          10.9488   40.2373    7.9042 N.ar    1  UNL1       -0.2857
      7 N          11.2215   39.9345   10.1320 N.ar    1  UNL1       -0.2194
      8 N           8.9548   42.7951   10.2768 N.ar    1  UNL1       -0.2072
      9 N           9.4509   42.1275    8.0479 N.ar    1  UNL1       -0.2048
     10 C           8.8906   41.1908   13.1111 C.2     1  UNL1        0.2277
     11 C           9.2093   41.0522   14.5557 C.3     1  UNL1        0.0950
     12 O           7.7294   40.9212   12.7051 O.2     1  UNL1       -0.2747
     13 N           9.9098   41.6283   12.2062 N.am    1  UNL1       -0.2680
     14 H          10.7969   41.8231   12.5863 H       1  UNL1        0.1563
     15 C           9.7803   39.4504    5.8959 C.3     1  UNL1        0.0367
     16 C          11.0479   40.0718    6.4577 C.3     1  UNL1        0.1868
     17 C          11.3470   41.3735    5.7886 C.2     1  UNL1        0.3347
     18 O          12.5107   41.8485    5.8426 O.2     1  UNL1       -0.2482
     19 O          10.3497   42.0670    5.1133 O.3     1  UNL1       -0.4789
     20 H           9.4818   41.7164    5.0709 H       1  UNL1        0.2951
@<TRIPOS>BOND
     1    16    15    1
     2    16    17    1
     3    16     6    1
     4    17    19    1
     5     2     7   ar
     6     3     8   ar
     7     3    13    1
     8     4     9   ar
     9     5     6   ar
    10     5     2   ar
    11    11    10    1
    12     6     1   ar
    13    13    10   am
    14    17    18    2
    15     1     7   ar
    16     2     3   ar
    17     4     8   ar
    18     5     9   ar
    19    10    12    2
    20    19    20    1
    21    13    14    1
@<TRIPOS>MOLECULE
Molport-047-869-455 PubChem-165915902
 20 21 0 0 0
SMALL
GASTEIGER

@<TRIPOS>ATOM
      1 C           9.3895   42.4130    8.7599 C.ar    1  UNL1        0.1802
      2 C          10.7137   41.7159    7.2530 C.ar    1  UNL1        0.1487
      3 C          11.7833   41.3470    6.4489 C.ar    1  UNL1        0.1567
      4 C          10.1995   40.5967    4.8232 C.ar    1  UNL1        0.2015
      5 C           9.4475   41.5182    6.8274 C.ar    1  UNL1        0.1677
      6 N           8.5934   41.9484    7.7598 N.ar    1  UNL1       -0.2857
      7 N          10.7164   42.2815    8.4747 N.ar    1  UNL1       -0.2194
      8 N          11.4950   40.7872    5.2339 N.ar    1  UNL1       -0.2072
      9 N           9.1552   40.9651    5.6255 N.ar    1  UNL1       -0.2048
     10 C          13.9082   42.7334    6.6652 C.2     1  UNL1        0.2277
     11 C          15.2999   42.7990    7.1814 C.3     1  UNL1        0.0950
     12 O          13.4327   43.7185    6.0412 O.2     1  UNL1       -0.2747
     13 N          13.1323   41.5510    6.8868 N.am    1  UNL1       -0.2680
     14 H          13.5617   40.8162    7.3816 H       1  UNL1        0.1563
     15 C           6.5332   42.1527    9.0758 C.3     1  UNL1        0.0367
     16 C           7.1355   41.9277    7.6990 C.3     1  UNL1        0.1868
     17 C           6.6255   42.9354    6.7213 C.2     1  UNL1        0.3347
     18 O           6.4193   44.1184    7.0966 O.2     1  UNL1       -0.2482
     19 O           6.3707   42.5758    5.4032 O.3     1  UNL1       -0.4789
     20 H           6.5231   41.6957    5.1199 H       1  UNL1        0.2951
@<TRIPOS>BOND
     1    16    15    1
     2    16    17    1
     3    16     6    1
     4    17    19    1
     5     2     7   ar
     6     3     8   ar
     7     3    13    1
     8     4     9   ar
     9     5     6   ar
    10     5     2   ar
    11    11    10    1
    12     6     1   ar
    13    13    10   am
    14    17    18    2
    15     1     7   ar
    16     2     3   ar
    17     4     8   ar
    18     5     9   ar
    19    10    12    2
    20    19    20    1
    21    13    14    1
@<TRIPOS>MOLECULE
Molport-047-869-455 PubChem-165915902
 20 21 0 0 0
SMALL
GASTEIGER

@<TRIPOS>ATOM
      1 C           5.8241   41.2024    8.4719 C.ar    1  UNL1        0.1802
      2 C           7.5944   41.4122    9.6260 C.ar    1  UNL1        0.1487
      3 C           8.8832   41.5337   10.1269 C.ar    1  UNL1        0.1567
      4 C           7.9349   41.6546   12.3179 C.ar    1  UNL1        0.2015
      5 C           6.5384   41.4157   10.4676 C.ar    1  UNL1        0.1677
      6 N           5.4100   41.2858    9.7647 N.ar    1  UNL1       -0.2857
      7 N           7.1802   41.2788    8.3521 N.ar    1  UNL1       -0.2194
      8 N           9.0239   41.6540   11.4828 N.ar    1  UNL1       -0.2072
      9 N           6.6707   41.5339   11.8109 N.ar    1  UNL1       -0.2048
     10 C          11.0176   42.5492    9.1798 C.2     1  UNL1        0.2277
     11 C          12.1357   42.4078    8.2115 C.3     1  UNL1        0.0950
     12 O          10.9704   43.5620    9.9267 O.2     1  UNL1       -0.2747
     13 N          10.0136   41.5311    9.2464 N.am    1  UNL1       -0.2680
     14 H          10.1077   40.7645    8.6359 H       1  UNL1        0.1563
     15 C           3.9473   41.9614   11.6145 C.3     1  UNL1        0.0367
     16 C           4.0470   41.2352   10.2836 C.3     1  UNL1        0.1868
     17 C           3.0763   41.7944    9.2955 C.2     1  UNL1        0.3347
     18 O           3.0049   43.0392    9.1286 O.2     1  UNL1       -0.2482
     19 O           2.2471   40.9519    8.5644 O.3     1  UNL1       -0.4789
     20 H           2.2973   40.0242    8.6859 H       1  UNL1        0.2951
@<TRIPOS>BOND
     1    16    15    1
     2    16    17    1
     3    16     6    1
     4    17    19    1
     5     2     7   ar
     6     3     8   ar
     7     3    13    1
     8     4     9   ar
     9     5     6   ar
    10     5     2   ar
    11    11    10    1
    12     6     1   ar
    13    13    10   am
    14    17    18    2
    15     1     7   ar
    16     2     3   ar
    17     4     8   ar
    18     5     9   ar
    19    10    12    2
    20    19    20    1
    21    13    14    1
@<TRIPOS>MOLECULE
Molport-047-869-455 PubChem-165915902
 20 21 0 0 0
SMALL
GASTEIGER

@<TRIPOS>ATOM
      1 C           8.7730   40.5856    7.3991 C.ar    1  UNL1        0.1802
      2 C          10.1100   41.6741    8.6390 C.ar    1  UNL1        0.1487
      3 C          11.1681   42.1766    9.3837 C.ar    1  UNL1        0.1567
      4 C           9.7429   43.9783   10.0450 C.ar    1  UNL1        0.2015
      5 C           8.9268   42.3245    8.6201 C.ar    1  UNL1        0.1677
      6 N           8.0667   41.6591    7.8445 N.ar    1  UNL1       -0.2857
      7 N          10.0503   40.5666    7.8759 N.ar    1  UNL1       -0.2194
      8 N          10.9548   43.3355   10.0797 N.ar    1  UNL1       -0.2072
      9 N           8.7089   43.4717    9.3073 N.ar    1  UNL1       -0.2048
     10 C          12.7862   40.4470   10.3187 C.2     1  UNL1        0.2277
     11 C          14.1376   39.8359   10.2291 C.3     1  UNL1        0.0950
     12 O          11.9758   40.0318   11.1886 O.2     1  UNL1       -0.2747
     13 N          12.4293   41.4973    9.4139 N.am    1  UNL1       -0.2680
     14 H          13.1076   41.7765    8.7572 H       1  UNL1        0.1563
     15 C           5.8684   42.1003    8.8398 C.3     1  UNL1        0.0367
     16 C           6.6800   42.0122    7.5583 C.3     1  UNL1        0.1868
     17 C           6.6004   43.2886    6.7864 C.2     1  UNL1        0.3347
     18 O           5.7773   44.1751    7.1319 O.2     1  UNL1       -0.2482
     19 O           7.4225   43.5021    5.6863 O.3     1  UNL1       -0.4789
     20 H           8.0368   42.8442    5.4258 H       1  UNL1        0.2951
@<TRIPOS>BOND
     1    16    15    1
     2    16    17    1
     3    16     6    1
     4    17    19    1
     5     2     7   ar
     6     3     8   ar
     7     3    13    1
     8     4     9   ar
     9     5     6   ar
    10     5     2   ar
    11    11    10    1
    12     6     1   ar
    13    13    10   am
    14    17    18    2
    15     1     7   ar
    16     2     3   ar
    17     4     8   ar
    18     5     9   ar
    19    10    12    2
    20    19    20    1
    21    13    14    1
@<TRIPOS>MOLECULE
Molport-047-869-455 PubChem-165915902
 20 21 0 0 0
SMALL
GASTEIGER

@<TRIPOS>ATOM
      1 C          10.3110   42.2838   10.4343 C.ar    1  UNL1        0.1802
      2 C          11.0311   42.0340    8.4521 C.ar    1  UNL1        0.1487
      3 C          11.7595   41.8857    7.2799 C.ar    1  UNL1        0.1567
      4 C           9.6843   41.7665    6.0994 C.ar    1  UNL1        0.2015
      5 C           9.6813   42.0436    8.4133 C.ar    1  UNL1        0.1677
      6 N           9.2027   42.1988    9.6506 N.ar    1  UNL1       -0.2857
      7 N          11.4663   42.1839    9.7172 N.ar    1  UNL1       -0.2194
      8 N          11.0564   41.7533    6.1133 N.ar    1  UNL1       -0.2072
      9 N           8.9792   41.9136    7.2618 N.ar    1  UNL1       -0.2048
     10 C          14.0402   42.9253    6.8311 C.2     1  UNL1        0.2277
     11 C          15.5149   42.7695    6.9237 C.3     1  UNL1        0.0950
     12 O          13.5592   43.9793    6.3373 O.2     1  UNL1       -0.2747
     13 N          13.1921   41.8742    7.3052 N.am    1  UNL1       -0.2680
     14 H          13.6299   41.0761    7.6802 H       1  UNL1        0.1563
     15 C           6.9651   41.2627    9.2829 C.3     1  UNL1        0.0367
     16 C           7.8018   42.2704   10.0532 C.3     1  UNL1        0.1868
     17 C           7.6567   42.0707   11.5264 C.2     1  UNL1        0.3347
     18 O           7.1336   41.0131   11.9630 O.2     1  UNL1       -0.2482
     19 O           8.0882   43.0456   12.4180 O.3     1  UNL1       -0.4789
     20 H           8.4783   43.8347   12.0967 H       1  UNL1        0.2951
@<TRIPOS>BOND
     1    16    15    1
     2    16    17    1
     3    16     6    1
     4    17    19    1
     5     2     7   ar
     6     3     8   ar
     7     3    13    1
     8     4     9   ar
     9     5     6   ar
    10     5     2   ar
    11    11    10    1
    12     6     1   ar
    13    13    10   am
    14    17    18    2
    15     1     7   ar
    16     2     3   ar
    17     4     8   ar
    18     5     9   ar
    19    10    12    2
    20    19    20    1
    21    13    14    1
