@<TRIPOS>MOLECULE
MolPort-020-269-162 19749433 MCULE-2171737813 PubChem-92634681 ZINC000019749433 ZINC19749433
 29 31 0 0 0
SMALL
GASTEIGER

@<TRIPOS>ATOM
      1 C           9.3492   40.2337    7.3940 C.ar    1  UNL1        0.1119
      2 C           8.1674   40.9455    7.3724 C.ar    1  UNL1        0.0907
      3 C           8.1271   41.6619    6.1943 C.ar    1  UNL1        0.1363
      4 N           9.9734   40.5320    6.2416 N.ar    1  UNL1       -0.2387
      5 N           9.2610   41.3846    5.5218 N.ar    1  UNL1       -0.1658
      6 C           6.1404   41.9754    8.5208 C.2     1  UNL1        0.2496
      7 N           7.1489   40.9656    8.3782 N.am    1  UNL1       -0.2779
      8 O           6.0970   42.9516    7.7228 O.2     1  UNL1       -0.2698
      9 H           7.1400   40.2244    9.0262 H       1  UNL1        0.1553
     10 C           5.1485   41.8719    9.6056 C.ar    1  UNL1        0.0538
     11 C           5.3187   40.9336   10.6343 C.ar    1  UNL1        0.0068
     12 C           4.3783   40.8346   11.6639 C.ar    1  UNL1        0.0298
     13 C           3.2606   41.6734   11.6725 C.ar    1  UNL1        0.1401
     14 C           3.0830   42.6111   10.6518 C.ar    1  UNL1        0.0298
     15 C           4.0233   42.7100    9.6221 C.ar    1  UNL1        0.0068
     16 F           2.3496   41.5774   12.6701 F       1  UNL1       -0.2042
     17 C          11.2803   40.0324    5.8464 C.3     1  UNL1        0.2121
     18 C          13.7630   41.5298    8.4305 C.3     1  UNL1        0.1153
     19 C          12.2461   40.1562    6.9823 C.2     1  UNL1        0.2509
     20 N          12.8827   41.4094    7.2786 N.am    1  UNL1       -0.2704
     21 O          12.4932   39.1391    7.6853 O.2     1  UNL1       -0.2727
     22 C          12.6643   42.5904    6.4522 C.3     1  UNL1        0.1412
     23 C          17.4302   44.1160    6.6478 C.3     1  UNL1        0.0515
     24 C          15.9662   44.0299    6.4055 C.ar    1  UNL1        0.0532
     25 C          15.1669   42.9576    6.7498 C.ar    1  UNL1        0.0322
     26 C          13.9262   43.3741    6.3079 C.ar    1  UNL1        0.0995
     27 N          13.9920   44.6019    5.7609 N.ar    1  UNL1       -0.1756
     28 N          15.2496   45.0036    5.8173 N.ar    1  UNL1       -0.2800
     29 H          15.5994   45.8627    5.4875 H       1  UNL1        0.1886
@<TRIPOS>BOND
     1    23    24    1
     2    25    26   ar
     3    22    26    1
     4    22    20    1
     5    18    20    1
     6    17    19    1
     7    17     4    1
     8     2     3   ar
     9     2     7    1
    10     6    10    1
    11    11    12   ar
    12    13    14   ar
    13    13    16    1
    14    15    10   ar
    15    28    27   ar
    16    28    24   ar
    17    20    19   am
    18     4     1   ar
    19     4     5   ar
    20     7     6   am
    21    24    25   ar
    22    26    27   ar
    23    19    21    2
    24     1     2   ar
    25     3     5   ar
    26     6     8    2
    27    10    11   ar
    28    12    13   ar
    29    14    15   ar
    30    28    29    1
    31     7     9    1
@<TRIPOS>MOLECULE
MolPort-020-269-162 19749433 MCULE-2171737813 PubChem-92634681 ZINC000019749433 ZINC19749433
 29 31 0 0 0
SMALL
GASTEIGER

@<TRIPOS>ATOM
      1 C          10.1954   40.6131    9.4096 C.ar    1  UNL1        0.1119
      2 C           9.5967   40.9725   10.5997 C.ar    1  UNL1        0.0907
      3 C          10.5834   41.0596   11.5597 C.ar    1  UNL1        0.1363
      4 N          11.5070   40.5033    9.6822 N.ar    1  UNL1       -0.2387
      5 N          11.7508   40.7599   10.9578 N.ar    1  UNL1       -0.1658
      6 C           7.2150   41.4197    9.8148 C.2     1  UNL1        0.2496
      7 N           8.2045   41.2118   10.8321 N.am    1  UNL1       -0.2779
      8 O           7.5390   41.4013    8.5958 O.2     1  UNL1       -0.2698
      9 H           7.9010   41.2356   11.7684 H       1  UNL1        0.1553
     10 C           5.8113   41.6558   10.1959 C.ar    1  UNL1        0.0538
     11 C           5.2599   41.0041   11.3089 C.ar    1  UNL1        0.0068
     12 C           3.9283   41.2275   11.6712 C.ar    1  UNL1        0.0298
     13 C           3.1382   42.1043   10.9231 C.ar    1  UNL1        0.1401
     14 C           3.6793   42.7580    9.8128 C.ar    1  UNL1        0.0298
     15 C           5.0108   42.5345    9.4504 C.ar    1  UNL1        0.0068
     16 F           1.8482   42.3207   11.2743 F       1  UNL1       -0.2042
     17 C          12.5281   40.1072    8.7261 C.3     1  UNL1        0.2121
     18 C          11.9223   41.9417    5.3569 C.3     1  UNL1        0.1153
     19 C          12.0741   40.4050    7.3319 C.2     1  UNL1        0.2509
     20 N          12.3052   41.6925    6.7379 N.am    1  UNL1       -0.2704
     21 O          11.4849   39.5028    6.6774 O.2     1  UNL1       -0.2727
     22 C          12.9317   42.7762    7.4854 C.3     1  UNL1        0.1412
     23 C          17.4468   43.9699    5.6775 C.3     1  UNL1        0.0515
     24 C          15.9853   43.8991    5.9389 C.ar    1  UNL1        0.0532
     25 C          15.3836   43.0632    6.8590 C.ar    1  UNL1        0.0322
     26 C          14.0485   43.3808    6.7015 C.ar    1  UNL1        0.0995
     27 N          13.8835   44.3395    5.7715 N.ar    1  UNL1       -0.1756
     28 N          15.0763   44.6553    5.2990 N.ar    1  UNL1       -0.2800
     29 H          15.2657   45.3249    4.6026 H       1  UNL1        0.1886
@<TRIPOS>BOND
     1    23    24    1
     2    25    26   ar
     3    22    26    1
     4    22    20    1
     5    18    20    1
     6    17    19    1
     7    17     4    1
     8     2     3   ar
     9     2     7    1
    10     6    10    1
    11    11    12   ar
    12    13    14   ar
    13    13    16    1
    14    15    10   ar
    15    28    27   ar
    16    28    24   ar
    17    20    19   am
    18     4     1   ar
    19     4     5   ar
    20     7     6   am
    21    24    25   ar
    22    26    27   ar
    23    19    21    2
    24     1     2   ar
    25     3     5   ar
    26     6     8    2
    27    10    11   ar
    28    12    13   ar
    29    14    15   ar
    30    28    29    1
    31     7     9    1
@<TRIPOS>MOLECULE
MolPort-020-269-162 19749433 MCULE-2171737813 PubChem-92634681 ZINC000019749433 ZINC19749433
 29 31 0 0 0
SMALL
GASTEIGER

@<TRIPOS>ATOM
      1 C          11.5805   40.6937   11.0095 C.ar    1  UNL1        0.1119
      2 C          12.5807   40.4693   10.0858 C.ar    1  UNL1        0.0907
      3 C          12.2231   41.1025    8.9135 C.ar    1  UNL1        0.1363
      4 N          10.6669   41.4507   10.3780 N.ar    1  UNL1       -0.2387
      5 N          11.0332   41.6960    9.1297 N.ar    1  UNL1       -0.1658
      6 C          15.0605   40.0282    9.7060 C.2     1  UNL1        0.2496
      7 N          13.7819   39.7139   10.2750 N.am    1  UNL1       -0.2779
      8 O          15.1994   41.0425    8.9690 O.2     1  UNL1       -0.2698
      9 H          13.7257   38.9118   10.8430 H       1  UNL1        0.1553
     10 C          16.2190   39.1611    9.9844 C.ar    1  UNL1        0.0538
     11 C          17.4192   39.7121   10.4572 C.ar    1  UNL1        0.0068
     12 C          18.5188   38.8904   10.7215 C.ar    1  UNL1        0.0298
     13 C          18.4263   37.5115   10.5150 C.ar    1  UNL1        0.1401
     14 C          17.2346   36.9539   10.0443 C.ar    1  UNL1        0.0298
     15 C          16.1350   37.7756    9.7798 C.ar    1  UNL1        0.0068
     16 F          19.4917   36.7154   10.7712 F       1  UNL1       -0.2042
     17 C           9.4141   41.9057   10.9588 C.3     1  UNL1        0.2121
     18 C           7.3388   44.0789    8.4984 C.3     1  UNL1        0.1153
     19 C           8.8887   43.0820   10.1980 C.2     1  UNL1        0.2509
     20 N           7.8911   42.9171    9.1776 N.am    1  UNL1       -0.2704
     21 O           9.3331   44.2303   10.4689 O.2     1  UNL1       -0.2727
     22 C           7.3972   41.5986    8.7992 C.3     1  UNL1        0.1412
     23 C           3.4934   41.0581   11.8892 C.3     1  UNL1        0.0515
     24 C           4.3675   41.1211   10.6886 C.ar    1  UNL1        0.0532
     25 C           5.7110   41.4408   10.7014 C.ar    1  UNL1        0.0322
     26 C           6.0343   41.3647    9.3606 C.ar    1  UNL1        0.0995
     27 N           4.9657   41.0129    8.6221 N.ar    1  UNL1       -0.1756
     28 N           3.9382   40.8671    9.4401 N.ar    1  UNL1       -0.2800
     29 H           3.0218   40.6172    9.1814 H       1  UNL1        0.1886
@<TRIPOS>BOND
     1    23    24    1
     2    25    26   ar
     3    22    26    1
     4    22    20    1
     5    18    20    1
     6    17    19    1
     7    17     4    1
     8     2     3   ar
     9     2     7    1
    10     6    10    1
    11    11    12   ar
    12    13    14   ar
    13    13    16    1
    14    15    10   ar
    15    28    27   ar
    16    28    24   ar
    17    20    19   am
    18     4     1   ar
    19     4     5   ar
    20     7     6   am
    21    24    25   ar
    22    26    27   ar
    23    19    21    2
    24     1     2   ar
    25     3     5   ar
    26     6     8    2
    27    10    11   ar
    28    12    13   ar
    29    14    15   ar
    30    28    29    1
    31     7     9    1
@<TRIPOS>MOLECULE
MolPort-020-269-162 19749433 MCULE-2171737813 PubChem-92634681 ZINC000019749433 ZINC19749433
 29 31 0 0 0
SMALL
GASTEIGER

@<TRIPOS>ATOM
      1 C          10.4672   41.5552    8.3898 C.ar    1  UNL1        0.1119
      2 C          11.5742   41.1528    7.6711 C.ar    1  UNL1        0.0907
      3 C          11.1750   40.1592    6.8013 C.ar    1  UNL1        0.1363
      4 N           9.4472   40.8084    7.9331 N.ar    1  UNL1       -0.2387
      5 N           9.8551   39.9701    6.9932 N.ar    1  UNL1       -0.1658
      6 C          13.5983   42.4294    6.7986 C.2     1  UNL1        0.2496
      7 N          12.9114   41.6504    7.7878 N.am    1  UNL1       -0.2779
      8 O          13.0275   42.7325    5.7152 O.2     1  UNL1       -0.2698
      9 H          13.4003   41.4405    8.6161 H       1  UNL1        0.1553
     10 C          14.9791   42.8788    7.0494 C.ar    1  UNL1        0.0538
     11 C          15.4973   43.9905    6.3689 C.ar    1  UNL1        0.0068
     12 C          16.8071   44.4175    6.6062 C.ar    1  UNL1        0.0298
     13 C          17.6085   43.7359    7.5259 C.ar    1  UNL1        0.1401
     14 C          17.1005   42.6273    8.2085 C.ar    1  UNL1        0.0298
     15 C          15.7908   42.2002    7.9711 C.ar    1  UNL1        0.0068
     16 F          18.8775   44.1497    7.7558 F       1  UNL1       -0.2042
     17 C           8.0821   40.8661    8.4302 C.3     1  UNL1        0.2121
     18 C           5.3783   43.5542    7.6905 C.3     1  UNL1        0.1153
     19 C           7.4220   42.1317    7.9819 C.2     1  UNL1        0.2509
     20 N           5.9966   42.2911    8.0624 N.am    1  UNL1       -0.2704
     21 O           8.1388   43.0665    7.5328 O.2     1  UNL1       -0.2727
     22 C           5.1328   41.2105    8.5225 C.3     1  UNL1        0.1412
     23 C           1.8414   42.2677   12.1459 C.3     1  UNL1        0.0515
     24 C           3.0887   42.0252   11.3748 C.ar    1  UNL1        0.0532
     25 C           3.1404   41.6628   10.0431 C.ar    1  UNL1        0.0322
     26 C           4.5011   41.5599    9.8288 C.ar    1  UNL1        0.0995
     27 N           5.1926   41.8541   10.9452 N.ar    1  UNL1       -0.1756
     28 N           4.3221   42.1364   11.8983 N.ar    1  UNL1       -0.2800
     29 H           4.5381   42.3841   12.8264 H       1  UNL1        0.1886
@<TRIPOS>BOND
     1    23    24    1
     2    25    26   ar
     3    22    26    1
     4    22    20    1
     5    18    20    1
     6    17    19    1
     7    17     4    1
     8     2     3   ar
     9     2     7    1
    10     6    10    1
    11    11    12   ar
    12    13    14   ar
    13    13    16    1
    14    15    10   ar
    15    28    27   ar
    16    28    24   ar
    17    20    19   am
    18     4     1   ar
    19     4     5   ar
    20     7     6   am
    21    24    25   ar
    22    26    27   ar
    23    19    21    2
    24     1     2   ar
    25     3     5   ar
    26     6     8    2
    27    10    11   ar
    28    12    13   ar
    29    14    15   ar
    30    28    29    1
    31     7     9    1
@<TRIPOS>MOLECULE
MolPort-020-269-162 19749433 MCULE-2171737813 PubChem-92634681 ZINC000019749433 ZINC19749433
 29 31 0 0 0
SMALL
GASTEIGER

@<TRIPOS>ATOM
      1 C          10.1301   40.7579    9.8693 C.ar    1  UNL1        0.1119
      2 C           9.3194   41.8602   10.0469 C.ar    1  UNL1        0.0907
      3 C          10.0905   42.9875    9.8537 C.ar    1  UNL1        0.1363
      4 N          11.3463   41.2466    9.5712 N.ar    1  UNL1       -0.2387
      5 N          11.3384   42.5704    9.5647 N.ar    1  UNL1       -0.1658
      6 C           6.8496   42.0310    9.4472 C.2     1  UNL1        0.2496
      7 N           7.9270   41.8676   10.3798 N.am    1  UNL1       -0.2779
      8 O           7.0872   42.1850    8.2178 O.2     1  UNL1       -0.2698
      9 H           7.6892   41.7509   11.3280 H       1  UNL1        0.1553
     10 C           5.4567   42.0185    9.9278 C.ar    1  UNL1        0.0538
     11 C           5.1721   41.7167   11.2678 C.ar    1  UNL1        0.0068
     12 C           3.8510   41.7046   11.7247 C.ar    1  UNL1        0.0298
     13 C           2.8046   41.9942   10.8450 C.ar    1  UNL1        0.1401
     14 C           3.0789   42.2960    9.5084 C.ar    1  UNL1        0.0298
     15 C           4.4000   42.3080    9.0514 C.ar    1  UNL1        0.0068
     16 F           1.5247   41.9825   11.2878 F       1  UNL1       -0.2042
     17 C          12.5341   40.4423    9.3345 C.3     1  UNL1        0.2121
     18 C          14.7951   38.6833   11.9571 C.3     1  UNL1        0.1153
     19 C          13.0344   39.8678   10.6223 C.2     1  UNL1        0.2509
     20 N          14.2896   39.1720   10.6836 N.am    1  UNL1       -0.2704
     21 O          12.3366   40.0071   11.6631 O.2     1  UNL1       -0.2727
     22 C          15.0941   38.9429    9.4895 C.3     1  UNL1        0.1412
     23 C          17.3045   43.2496    8.2064 C.3     1  UNL1        0.0515
     24 C          17.0258   41.8883    8.7340 C.ar    1  UNL1        0.0532
     25 C          15.8025   41.2500    8.6757 C.ar    1  UNL1        0.0322
     26 C          16.0790   40.0477    9.2970 C.ar    1  UNL1        0.0995
     27 N          17.3686   39.9817    9.6761 N.ar    1  UNL1       -0.1756
     28 N          17.9503   41.1174    9.3329 N.ar    1  UNL1       -0.2800
     29 H          18.8926   41.3565    9.4881 H       1  UNL1        0.1886
@<TRIPOS>BOND
     1    23    24    1
     2    25    26   ar
     3    22    26    1
     4    22    20    1
     5    18    20    1
     6    17    19    1
     7    17     4    1
     8     2     3   ar
     9     2     7    1
    10     6    10    1
    11    11    12   ar
    12    13    14   ar
    13    13    16    1
    14    15    10   ar
    15    28    27   ar
    16    28    24   ar
    17    20    19   am
    18     4     1   ar
    19     4     5   ar
    20     7     6   am
    21    24    25   ar
    22    26    27   ar
    23    19    21    2
    24     1     2   ar
    25     3     5   ar
    26     6     8    2
    27    10    11   ar
    28    12    13   ar
    29    14    15   ar
    30    28    29    1
    31     7     9    1
@<TRIPOS>MOLECULE
MolPort-020-269-162 19749433 MCULE-2171737813 PubChem-92634681 ZINC000019749433 ZINC19749433
 29 31 0 0 0
SMALL
GASTEIGER

@<TRIPOS>ATOM
      1 C          10.4645   41.6203    6.9242 C.ar    1  UNL1        0.1119
      2 C          11.5254   41.6155    6.0420 C.ar    1  UNL1        0.0907
      3 C          11.1344   40.9235    4.9146 C.ar    1  UNL1        0.1363
      4 N           9.4774   40.9475    6.3080 N.ar    1  UNL1       -0.2387
      5 N           9.8641   40.5224    5.1154 N.ar    1  UNL1       -0.1658
      6 C          13.7820   41.7929    7.2102 C.2     1  UNL1        0.2496
      7 N          12.8154   42.2057    6.2342 N.am    1  UNL1       -0.2779
      8 O          13.5307   40.8356    7.9924 O.2     1  UNL1       -0.2698
      9 H          13.0594   42.9577    5.6476 H       1  UNL1        0.1553
     10 C          15.0766   42.4910    7.2996 C.ar    1  UNL1        0.0538
     11 C          16.0826   42.0123    8.1520 C.ar    1  UNL1        0.0068
     12 C          17.3110   42.6739    8.2375 C.ar    1  UNL1        0.0298
     13 C          17.5427   43.8192    7.4711 C.ar    1  UNL1        0.1401
     14 C          16.5463   44.3032    6.6192 C.ar    1  UNL1        0.0298
     15 C          15.3178   43.6417    6.5338 C.ar    1  UNL1        0.0068
     16 F          18.7330   44.4601    7.5540 F       1  UNL1       -0.2042
     17 C           8.1705   40.6714    6.8819 C.3     1  UNL1        0.2121
     18 C           6.1226   43.9662    7.0663 C.3     1  UNL1        0.1153
     19 C           7.2143   41.7710    6.5427 C.2     1  UNL1        0.2509
     20 N           7.0004   42.8693    7.4436 N.am    1  UNL1       -0.2704
     21 O           6.5964   41.7237    5.4447 O.2     1  UNL1       -0.2727
     22 C           7.6542   42.9267    8.7454 C.3     1  UNL1        0.1412
     23 C           4.0492   40.4916   11.2262 C.3     1  UNL1        0.0515
     24 C           5.3417   41.1028   10.8198 C.ar    1  UNL1        0.0532
     25 C           5.5576   41.7934    9.6435 C.ar    1  UNL1        0.0322
     26 C           6.8918   42.1336    9.7540 C.ar    1  UNL1        0.0995
     27 N           7.4123   41.6893   10.9127 N.ar    1  UNL1       -0.1756
     28 N           6.4583   41.0507   11.5669 N.ar    1  UNL1       -0.2800
     29 H           6.5489   40.6145   12.4449 H       1  UNL1        0.1886
@<TRIPOS>BOND
     1    23    24    1
     2    25    26   ar
     3    22    26    1
     4    22    20    1
     5    18    20    1
     6    17    19    1
     7    17     4    1
     8     2     3   ar
     9     2     7    1
    10     6    10    1
    11    11    12   ar
    12    13    14   ar
    13    13    16    1
    14    15    10   ar
    15    28    27   ar
    16    28    24   ar
    17    20    19   am
    18     4     1   ar
    19     4     5   ar
    20     7     6   am
    21    24    25   ar
    22    26    27   ar
    23    19    21    2
    24     1     2   ar
    25     3     5   ar
    26     6     8    2
    27    10    11   ar
    28    12    13   ar
    29    14    15   ar
    30    28    29    1
    31     7     9    1
@<TRIPOS>MOLECULE
MolPort-020-269-162 19749433 MCULE-2171737813 PubChem-92634681 ZINC000019749433 ZINC19749433
 29 31 0 0 0
SMALL
GASTEIGER

@<TRIPOS>ATOM
      1 C          10.6881   41.9408    7.0993 C.ar    1  UNL1        0.1119
      2 C          11.6675   41.9899    6.1286 C.ar    1  UNL1        0.0907
      3 C          11.1639   41.3965    4.9897 C.ar    1  UNL1        0.1363
      4 N           9.6360   41.3350    6.5226 N.ar    1  UNL1       -0.2387
      5 N           9.9072   41.0006    5.2707 N.ar    1  UNL1       -0.1658
      6 C          14.0230   42.0343    7.0973 C.2     1  UNL1        0.2496
      7 N          12.9824   42.5426    6.2510 N.am    1  UNL1       -0.2779
      8 O          13.8213   41.0180    7.8169 O.2     1  UNL1       -0.2698
      9 H          13.1898   43.3380    5.7091 H       1  UNL1        0.1553
     10 C          15.3357   42.7032    7.1262 C.ar    1  UNL1        0.0538
     11 C          16.2974   42.3360    8.0790 C.ar    1  UNL1        0.0068
     12 C          17.5430   42.9699    8.1072 C.ar    1  UNL1        0.0298
     13 C          17.8362   43.9758    7.1826 C.ar    1  UNL1        0.1401
     14 C          16.8842   44.3480    6.2297 C.ar    1  UNL1        0.0298
     15 C          15.6385   43.7142    6.2016 C.ar    1  UNL1        0.0068
     16 F          19.0431   44.5899    7.2099 F       1  UNL1       -0.2042
     17 C           8.3783   41.0343    7.1870 C.3     1  UNL1        0.2121
     18 C           9.8665   40.2949   10.6973 C.3     1  UNL1        0.1153
     19 C           8.5721   41.0023    8.6703 C.2     1  UNL1        0.2509
     20 N           9.6491   40.2563    9.2595 N.am    1  UNL1       -0.2704
     21 O           7.7741   41.6474    9.4028 O.2     1  UNL1       -0.2727
     22 C          10.5551   39.4534    8.4471 C.3     1  UNL1        0.1412
     23 C          11.9070   35.4008   11.0604 C.3     1  UNL1        0.0515
     24 C          11.8685   36.7439   10.4247 C.ar    1  UNL1        0.0532
     25 C          10.8468   37.2129    9.6225 C.ar    1  UNL1        0.0322
     26 C          11.2989   38.4765    9.2956 C.ar    1  UNL1        0.0995
     27 N          12.4866   38.7325    9.8742 N.ar    1  UNL1       -0.1756
     28 N          12.8391   37.6634   10.5661 N.ar    1  UNL1       -0.2800
     29 H          13.6651   37.5589   11.0915 H       1  UNL1        0.1886
@<TRIPOS>BOND
     1    23    24    1
     2    25    26   ar
     3    22    26    1
     4    22    20    1
     5    18    20    1
     6    17    19    1
     7    17     4    1
     8     2     3   ar
     9     2     7    1
    10     6    10    1
    11    11    12   ar
    12    13    14   ar
    13    13    16    1
    14    15    10   ar
    15    28    27   ar
    16    28    24   ar
    17    20    19   am
    18     4     1   ar
    19     4     5   ar
    20     7     6   am
    21    24    25   ar
    22    26    27   ar
    23    19    21    2
    24     1     2   ar
    25     3     5   ar
    26     6     8    2
    27    10    11   ar
    28    12    13   ar
    29    14    15   ar
    30    28    29    1
    31     7     9    1
@<TRIPOS>MOLECULE
MolPort-020-269-162 19749433 MCULE-2171737813 PubChem-92634681 ZINC000019749433 ZINC19749433
 29 31 0 0 0
SMALL
GASTEIGER

@<TRIPOS>ATOM
      1 C          10.4628   42.0162    8.9569 C.ar    1  UNL1        0.1119
      2 C          11.6072   41.3146    8.6375 C.ar    1  UNL1        0.0907
      3 C          11.2668   39.9832    8.5169 C.ar    1  UNL1        0.1363
      4 N           9.4797   41.1012    9.0111 N.ar    1  UNL1       -0.2387
      5 N           9.9447   39.8879    8.7577 N.ar    1  UNL1       -0.1658
      6 C          13.5406   42.1471    7.2032 C.2     1  UNL1        0.2496
      7 N          12.9268   41.8415    8.4630 N.am    1  UNL1       -0.2779
      8 O          12.9141   41.9567    6.1249 O.2     1  UNL1       -0.2698
      9 H          13.4572   42.0079    9.2755 H       1  UNL1        0.1553
     10 C          14.9111   42.6873    7.1682 C.ar    1  UNL1        0.0538
     11 C          15.2348   43.7434    6.3036 C.ar    1  UNL1        0.0068
     12 C          16.5347   44.2565    6.2697 C.ar    1  UNL1        0.0298
     13 C          17.5207   43.7173    7.1003 C.ar    1  UNL1        0.1401
     14 C          17.2072   42.6651    7.9648 C.ar    1  UNL1        0.0298
     15 C          15.9073   42.1519    7.9986 C.ar    1  UNL1        0.0068
     16 F          18.7801   44.2145    7.0674 F       1  UNL1       -0.2042
     17 C           8.0945   41.3832    9.3509 C.3     1  UNL1        0.2121
     18 C           6.5238   43.4325    6.4497 C.3     1  UNL1        0.1153
     19 C           7.5845   42.5277    8.5333 C.2     1  UNL1        0.2509
     20 N           7.0828   42.3208    7.2032 N.am    1  UNL1       -0.2704
     21 O           7.5964   43.6856    9.0321 O.2     1  UNL1       -0.2727
     22 C           7.1073   41.0057    6.5745 C.3     1  UNL1        0.1412
     23 C          10.8907   39.0323    3.9531 C.3     1  UNL1        0.0515
     24 C           9.9972   39.9599    4.6951 C.ar    1  UNL1        0.0532
     25 C           8.7864   39.6121    5.2609 C.ar    1  UNL1        0.0322
     26 C           8.3722   40.8117    5.8064 C.ar    1  UNL1        0.0995
     27 N           9.2781   41.7829    5.5893 N.ar    1  UNL1       -0.1756
     28 N          10.2769   41.2587    4.9010 N.ar    1  UNL1       -0.2800
     29 H          11.0822   41.7345    4.5938 H       1  UNL1        0.1886
@<TRIPOS>BOND
     1    23    24    1
     2    25    26   ar
     3    22    26    1
     4    22    20    1
     5    18    20    1
     6    17    19    1
     7    17     4    1
     8     2     3   ar
     9     2     7    1
    10     6    10    1
    11    11    12   ar
    12    13    14   ar
    13    13    16    1
    14    15    10   ar
    15    28    27   ar
    16    28    24   ar
    17    20    19   am
    18     4     1   ar
    19     4     5   ar
    20     7     6   am
    21    24    25   ar
    22    26    27   ar
    23    19    21    2
    24     1     2   ar
    25     3     5   ar
    26     6     8    2
    27    10    11   ar
    28    12    13   ar
    29    14    15   ar
    30    28    29    1
    31     7     9    1
@<TRIPOS>MOLECULE
MolPort-020-269-162 19749433 MCULE-2171737813 PubChem-92634681 ZINC000019749433 ZINC19749433
 29 31 0 0 0
SMALL
GASTEIGER

@<TRIPOS>ATOM
      1 C          10.4391   41.6178    9.0877 C.ar    1  UNL1        0.1119
      2 C           9.3691   42.0555    9.8410 C.ar    1  UNL1        0.0907
      3 C           9.5935   41.6831   11.1502 C.ar    1  UNL1        0.1363
      4 N          11.2680   41.0102    9.9540 N.ar    1  UNL1       -0.2387
      5 N          10.7748   41.0363   11.1822 N.ar    1  UNL1       -0.1658
      6 C           6.8637   42.2865    9.4433 C.2     1  UNL1        0.2496
      7 N           8.2147   42.7640    9.3775 N.am    1  UNL1       -0.2779
      8 O           6.6099   41.1552    9.9404 O.2     1  UNL1       -0.2698
      9 H           8.3602   43.6530    8.9805 H       1  UNL1        0.1553
     10 C           5.7656   43.1227    8.9273 C.ar    1  UNL1        0.0538
     11 C           6.0282   44.1499    8.0089 C.ar    1  UNL1        0.0068
     12 C           4.9871   44.9437    7.5189 C.ar    1  UNL1        0.0298
     13 C           3.6754   44.7162    7.9437 C.ar    1  UNL1        0.1401
     14 C           3.4045   43.6950    8.8584 C.ar    1  UNL1        0.0298
     15 C           4.4456   42.9013    9.3485 C.ar    1  UNL1        0.0068
     16 F           2.6668   45.4853    7.4688 F       1  UNL1       -0.2042
     17 C          12.5194   40.3617    9.5971 C.3     1  UNL1        0.2121
     18 C          15.0646   38.5879   11.9336 C.3     1  UNL1        0.1153
     19 C          13.1521   39.7563   10.8103 C.2     1  UNL1        0.2509
     20 N          14.4309   39.1068   10.7314 N.am    1  UNL1       -0.2704
     21 O          12.5457   39.8279   11.9134 O.2     1  UNL1       -0.2727
     22 C          15.1329   38.9556    9.4626 C.3     1  UNL1        0.1412
     23 C          17.3612   43.2773    8.2634 C.3     1  UNL1        0.0515
     24 C          17.0810   41.9005    8.7486 C.ar    1  UNL1        0.0532
     25 C          15.8466   41.2824    8.7119 C.ar    1  UNL1        0.0322
     26 C          16.1271   40.0530    9.2758 C.ar    1  UNL1        0.0995
     27 N          17.4286   39.9541    9.6034 N.ar    1  UNL1       -0.1756
     28 N          18.0149   41.0939    9.2824 N.ar    1  UNL1       -0.2800
     29 H          18.9659   41.3134    9.4112 H       1  UNL1        0.1886
@<TRIPOS>BOND
     1    23    24    1
     2    25    26   ar
     3    22    26    1
     4    22    20    1
     5    18    20    1
     6    17    19    1
     7    17     4    1
     8     2     3   ar
     9     2     7    1
    10     6    10    1
    11    11    12   ar
    12    13    14   ar
    13    13    16    1
    14    15    10   ar
    15    28    27   ar
    16    28    24   ar
    17    20    19   am
    18     4     1   ar
    19     4     5   ar
    20     7     6   am
    21    24    25   ar
    22    26    27   ar
    23    19    21    2
    24     1     2   ar
    25     3     5   ar
    26     6     8    2
    27    10    11   ar
    28    12    13   ar
    29    14    15   ar
    30    28    29    1
    31     7     9    1
@<TRIPOS>MOLECULE
MolPort-020-269-162 19749433 MCULE-2171737813 PubChem-92634681 ZINC000019749433 ZINC19749433
 29 31 0 0 0
SMALL
GASTEIGER

@<TRIPOS>ATOM
      1 C           9.4101   40.5398    7.3350 C.ar    1  UNL1        0.1119
      2 C           8.2085   41.2182    7.3440 C.ar    1  UNL1        0.0907
      3 C           8.1495   41.9881    6.2009 C.ar    1  UNL1        0.1363
      4 N          10.0270   40.9099    6.1997 N.ar    1  UNL1       -0.2387
      5 N           9.2917   41.7751    5.5191 N.ar    1  UNL1       -0.1658
      6 C           6.2229   42.1892    8.6099 C.2     1  UNL1        0.2496
      7 N           7.1886   41.1618    8.3469 N.am    1  UNL1       -0.2779
      8 O           6.2231   43.2539    7.9334 O.2     1  UNL1       -0.2698
      9 H           7.1465   40.3501    8.9025 H       1  UNL1        0.1553
     10 C           5.2241   41.9997    9.6767 C.ar    1  UNL1        0.0538
     11 C           4.0494   42.7661    9.6920 C.ar    1  UNL1        0.0068
     12 C           3.1014   42.5871   10.7035 C.ar    1  UNL1        0.0298
     13 C           3.3209   41.6401   11.7074 C.ar    1  UNL1        0.1401
     14 C           4.4883   40.8721   11.7000 C.ar    1  UNL1        0.0298
     15 C           5.4365   41.0512   10.6886 C.ar    1  UNL1        0.0068
     16 F           2.4023   41.4667   12.6874 F       1  UNL1       -0.2042
     17 C          11.3481   40.4667    5.7847 C.3     1  UNL1        0.2121
     18 C          14.1965   41.4328    8.2417 C.3     1  UNL1        0.1153
     19 C          12.4040   41.2503    6.4986 C.2     1  UNL1        0.2509
     20 N          13.1235   40.6843    7.6057 N.am    1  UNL1       -0.2704
     21 O          12.6598   42.4222    6.1103 O.2     1  UNL1       -0.2727
     22 C          12.8140   39.3546    8.1170 C.3     1  UNL1        0.1412
     23 C          15.5120   38.6073   12.2694 C.3     1  UNL1        0.0515
     24 C          15.0133   38.6022   10.8692 C.ar    1  UNL1        0.0532
     25 C          13.8542   39.2168   10.4377 C.ar    1  UNL1        0.0322
     26 C          13.8532   38.9090    9.0911 C.ar    1  UNL1        0.0995
     27 N          14.9363   38.1830    8.7578 N.ar    1  UNL1       -0.1756
     28 N          15.6482   37.9906    9.8541 N.ar    1  UNL1       -0.2800
     29 H          16.4930   37.4889    9.9166 H       1  UNL1        0.1886
@<TRIPOS>BOND
     1    23    24    1
     2    25    26   ar
     3    22    26    1
     4    22    20    1
     5    18    20    1
     6    17    19    1
     7    17     4    1
     8     2     3   ar
     9     2     7    1
    10     6    10    1
    11    11    12   ar
    12    13    14   ar
    13    13    16    1
    14    15    10   ar
    15    28    27   ar
    16    28    24   ar
    17    20    19   am
    18     4     1   ar
    19     4     5   ar
    20     7     6   am
    21    24    25   ar
    22    26    27   ar
    23    19    21    2
    24     1     2   ar
    25     3     5   ar
    26     6     8    2
    27    10    11   ar
    28    12    13   ar
    29    14    15   ar
    30    28    29    1
    31     7     9    1
