@<TRIPOS>MOLECULE
MolPort-002-849-489 8715579 LN01247785 MCULE-8954675726 PubChem-11842445 ZINC000008715579 ZINC08715579
 25 26 0 0 0
SMALL
GASTEIGER

@<TRIPOS>ATOM
      1 C           8.6046   42.0827    8.8600 C.ar    1  UNL1        0.1678
      2 C          10.4703   41.1143    9.6433 C.ar    1  UNL1        0.0704
      3 C          11.3737   40.5930   10.7075 C.3     1  UNL1        0.0528
      4 C          10.7516   41.0464    8.2721 C.ar    1  UNL1        0.0845
      5 N           9.2767   41.6834    9.9610 N.ar    1  UNL1       -0.2281
      6 S           9.4537   41.7516    7.4528 S.2     1  UNL1       -0.0484
      7 C           7.1076   44.1326    8.9090 C.2     1  UNL1        0.4068
      8 O           8.0839   44.9317    8.9033 O.2     1  UNL1       -0.2260
      9 N           7.3228   42.7179    8.8849 N.am    1  UNL1       -0.2298
     10 H           6.5278   42.1372    8.8856 H       1  UNL1        0.1601
     11 O           5.7973   44.6169    8.9320 O.3     1  UNL1       -0.4344
     12 C           3.7560   45.0014    7.6991 C.3     1  UNL1        0.0513
     13 C           4.7282   43.9732    8.2484 C.3     1  UNL1        0.2102
     14 C          11.9955   40.5318    7.6483 C.2     1  UNL1        0.2027
     15 O          12.0779   39.3004    7.3882 O.2     1  UNL1       -0.2860
     16 C          13.1502   41.4027    7.3267 C.ar    1  UNL1        0.0396
     17 C          13.0403   42.3493    6.2964 C.ar    1  UNL1        0.0045
     18 C          14.1084   43.1980    5.9932 C.ar    1  UNL1        0.0184
     19 C          15.2993   43.1134    6.7208 C.ar    1  UNL1        0.1057
     20 C          15.4129   42.1850    7.7598 C.ar    1  UNL1        0.0184
     21 C          14.3438   41.3373    8.0616 C.ar    1  UNL1        0.0045
     22 C          17.7686   44.2239    7.7177 C.3     1  UNL1        0.1816
     23 O          17.3513   43.6958    5.1201 O.2     1  UNL1       -0.1686
     24 O          16.1173   45.5715    6.0878 O.2     1  UNL1       -0.1686
     25 S          16.6368   44.1856    6.3483 S.O2    1  UNL1        0.0104
@<TRIPOS>BOND
     1    12    13    1
     2    13    11    1
     3     7    11    1
     4     7     9   am
     5     1     6   ar
     6     2     5   ar
     7     3     2    1
     8     4     6   ar
     9     4    14    1
    10    14    16    1
    11    17    18   ar
    12    19    20   ar
    13    21    16   ar
    14     9     1    1
    15    25    19    1
    16    25    22    1
    17     7     8    2
    18     1     5   ar
    19     2     4   ar
    20    14    15    2
    21    16    17   ar
    22    18    19   ar
    23    20    21   ar
    24    25    23    2
    25    25    24    2
    26     9    10    1
@<TRIPOS>MOLECULE
MolPort-002-849-489 8715579 LN01247785 MCULE-8954675726 PubChem-11842445 ZINC000008715579 ZINC08715579
 25 26 0 0 0
SMALL
GASTEIGER

@<TRIPOS>ATOM
      1 C           8.6715   42.1043    9.5386 C.ar    1  UNL1        0.1678
      2 C          10.5885   40.9796    9.8429 C.ar    1  UNL1        0.0704
      3 C          11.6187   40.2648   10.6479 C.3     1  UNL1        0.0528
      4 C          10.6538   41.1447    8.4528 C.ar    1  UNL1        0.0845
      5 N           9.4847   41.5077   10.4365 N.ar    1  UNL1       -0.2281
      6 S           9.2800   42.0057    7.9794 S.2     1  UNL1       -0.0484
      7 C           6.1377   42.2629    9.5291 C.2     1  UNL1        0.4068
      8 O           6.0030   41.1842    8.8887 O.2     1  UNL1       -0.2260
      9 N           7.4390   42.7499    9.8722 N.am    1  UNL1       -0.2298
     10 H           7.4901   43.5938   10.3766 H       1  UNL1        0.1601
     11 O           5.0159   42.9979    9.9205 O.3     1  UNL1       -0.4344
     12 C           2.9807   41.7010   10.0241 C.3     1  UNL1        0.0513
     13 C           3.7349   42.8189    9.3275 C.3     1  UNL1        0.2102
     14 C          11.7631   40.7223    7.5627 C.2     1  UNL1        0.2027
     15 O          11.7190   39.5736    7.0436 O.2     1  UNL1       -0.2860
     16 C          12.9266   41.5900    7.2653 C.ar    1  UNL1        0.0396
     17 C          14.1272   41.4070    7.9688 C.ar    1  UNL1        0.0045
     18 C          15.2446   42.1974    7.6866 C.ar    1  UNL1        0.0184
     19 C          15.1764   43.1785    6.6930 C.ar    1  UNL1        0.1057
     20 C          13.9900   43.3576    5.9753 C.ar    1  UNL1        0.0184
     21 C          12.8738   42.5661    6.2587 C.ar    1  UNL1        0.0045
     22 C          17.6825   44.1676    7.7253 C.3     1  UNL1        0.1816
     23 O          17.2944   43.6070    5.1301 O.2     1  UNL1       -0.1686
     24 O          16.1491   45.5711    6.0289 O.2     1  UNL1       -0.1686
     25 S          16.5816   44.1639    6.3304 S.O2    1  UNL1        0.0104
@<TRIPOS>BOND
     1    12    13    1
     2    13    11    1
     3     7    11    1
     4     7     9   am
     5     1     6   ar
     6     2     5   ar
     7     3     2    1
     8     4     6   ar
     9     4    14    1
    10    14    16    1
    11    17    18   ar
    12    19    20   ar
    13    21    16   ar
    14     9     1    1
    15    25    19    1
    16    25    22    1
    17     7     8    2
    18     1     5   ar
    19     2     4   ar
    20    14    15    2
    21    16    17   ar
    22    18    19   ar
    23    20    21   ar
    24    25    23    2
    25    25    24    2
    26     9    10    1
@<TRIPOS>MOLECULE
MolPort-002-849-489 8715579 LN01247785 MCULE-8954675726 PubChem-11842445 ZINC000008715579 ZINC08715579
 25 26 0 0 0
SMALL
GASTEIGER

@<TRIPOS>ATOM
      1 C           9.7855   40.1973    8.7770 C.ar    1  UNL1        0.1678
      2 C          11.4215   40.1928   10.3119 C.ar    1  UNL1        0.0704
      3 C          11.9758   40.2926   11.6914 C.3     1  UNL1        0.0528
      4 C          12.1951   39.9380    9.1716 C.ar    1  UNL1        0.0845
      5 N          10.0871   40.3286   10.0867 N.ar    1  UNL1       -0.2281
      6 S          11.1494   39.9099    7.8454 S.2     1  UNL1       -0.0484
      7 C           7.8847   41.4851    7.6936 C.2     1  UNL1        0.4068
      8 O           8.5459   42.5587    7.6471 O.2     1  UNL1       -0.2260
      9 N           8.4624   40.2958    8.2413 N.am    1  UNL1       -0.2298
     10 H           7.9068   39.4831    8.2502 H       1  UNL1        0.1601
     11 O           6.5771   41.4380    7.2038 O.3     1  UNL1       -0.4344
     12 C           7.1823   39.3954    6.0651 C.3     1  UNL1        0.0513
     13 C           6.0556   40.3085    6.5133 C.3     1  UNL1        0.2102
     14 C          13.6716   39.8036    9.1159 C.2     1  UNL1        0.2027
     15 O          14.2063   38.7819    9.6268 O.2     1  UNL1       -0.2860
     16 C          14.5463   40.8246    8.4933 C.ar    1  UNL1        0.0396
     17 C          14.0228   41.6844    7.5152 C.ar    1  UNL1        0.0045
     18 C          14.8233   42.6710    6.9333 C.ar    1  UNL1        0.0184
     19 C          16.1575   42.8132    7.3263 C.ar    1  UNL1        0.1057
     20 C          16.6838   41.9724    8.3115 C.ar    1  UNL1        0.0184
     21 C          15.8818   40.9865    8.8924 C.ar    1  UNL1        0.0045
     22 C          18.4822   44.4772    7.7155 C.3     1  UNL1        0.1816
     23 O          17.7334   43.5584    5.3081 O.2     1  UNL1       -0.1686
     24 O          16.3301   45.2805    6.3291 O.2     1  UNL1       -0.1686
     25 S          17.1602   44.0585    6.6044 S.O2    1  UNL1        0.0104
@<TRIPOS>BOND
     1    12    13    1
     2    13    11    1
     3     7    11    1
     4     7     9   am
     5     1     6   ar
     6     2     5   ar
     7     3     2    1
     8     4     6   ar
     9     4    14    1
    10    14    16    1
    11    17    18   ar
    12    19    20   ar
    13    21    16   ar
    14     9     1    1
    15    25    19    1
    16    25    22    1
    17     7     8    2
    18     1     5   ar
    19     2     4   ar
    20    14    15    2
    21    16    17   ar
    22    18    19   ar
    23    20    21   ar
    24    25    23    2
    25    25    24    2
    26     9    10    1
@<TRIPOS>MOLECULE
MolPort-002-849-489 8715579 LN01247785 MCULE-8954675726 PubChem-11842445 ZINC000008715579 ZINC08715579
 25 26 0 0 0
SMALL
GASTEIGER

@<TRIPOS>ATOM
      1 C          13.5049   42.1204    6.7802 C.ar    1  UNL1        0.1678
      2 C          11.5757   41.1742    6.1361 C.ar    1  UNL1        0.0704
      3 C          10.4969   40.8396    5.1641 C.3     1  UNL1        0.0528
      4 C          11.6016   40.7280    7.4643 C.ar    1  UNL1        0.0845
      5 N          12.6362   41.9392    5.7624 N.ar    1  UNL1       -0.2281
      6 S          13.0010   41.3469    8.1797 S.2     1  UNL1       -0.0484
      7 C          14.8302   44.1505    6.0267 C.2     1  UNL1        0.4068
      8 O          13.8292   44.6868    5.4770 O.2     1  UNL1       -0.2260
      9 N          14.7106   42.8847    6.6837 N.am    1  UNL1       -0.2298
     10 H          15.5201   42.5111    7.1014 H       1  UNL1        0.1601
     11 O          16.0731   44.7882    6.0089 O.3     1  UNL1       -0.4344
     12 C          17.8337   44.0589    7.4933 C.3     1  UNL1        0.0513
     13 C          17.3032   44.0757    6.0712 C.3     1  UNL1        0.2102
     14 C          10.5549   39.9318    8.1510 C.2     1  UNL1        0.2027
     15 O          10.8023   38.7301    8.4430 O.2     1  UNL1       -0.2860
     16 C           9.2260   40.4865    8.4997 C.ar    1  UNL1        0.0396
     17 C           9.0878   41.2937    9.6396 C.ar    1  UNL1        0.0045
     18 C           7.8489   41.8478    9.9729 C.ar    1  UNL1        0.0184
     19 C           6.7327   41.6050    9.1668 C.ar    1  UNL1        0.1057
     20 C           6.8635   40.8157    8.0204 C.ar    1  UNL1        0.0184
     21 C           8.1032   40.2626    7.6885 C.ar    1  UNL1        0.0045
     22 C           4.8132   41.9864   11.2869 C.3     1  UNL1        0.1816
     23 O           5.2187   43.7931    9.3449 O.2     1  UNL1       -0.1686
     24 O           4.1068   41.7093    8.7134 O.2     1  UNL1       -0.1686
     25 S           5.1795   42.3089    9.5783 S.O2    1  UNL1        0.0104
@<TRIPOS>BOND
     1    12    13    1
     2    13    11    1
     3     7    11    1
     4     7     9   am
     5     1     6   ar
     6     2     5   ar
     7     3     2    1
     8     4     6   ar
     9     4    14    1
    10    14    16    1
    11    17    18   ar
    12    19    20   ar
    13    21    16   ar
    14     9     1    1
    15    25    19    1
    16    25    22    1
    17     7     8    2
    18     1     5   ar
    19     2     4   ar
    20    14    15    2
    21    16    17   ar
    22    18    19   ar
    23    20    21   ar
    24    25    23    2
    25    25    24    2
    26     9    10    1
@<TRIPOS>MOLECULE
MolPort-002-849-489 8715579 LN01247785 MCULE-8954675726 PubChem-11842445 ZINC000008715579 ZINC08715579
 25 26 0 0 0
SMALL
GASTEIGER

@<TRIPOS>ATOM
      1 C           8.1383   41.8200    6.9788 C.ar    1  UNL1        0.1678
      2 C           9.8052   40.9190    5.7780 C.ar    1  UNL1        0.0704
      3 C          10.4269   40.3520    4.5483 C.3     1  UNL1        0.0528
      4 C          10.4831   41.0912    6.9924 C.ar    1  UNL1        0.0845
      5 N           8.5091   41.3310    5.7760 N.ar    1  UNL1       -0.2281
      6 S           9.3909   41.7635    8.0917 S.2     1  UNL1       -0.0484
      7 C           6.1230   42.0954    8.4981 C.2     1  UNL1        0.4068
      8 O           6.6399   41.4115    9.4238 O.2     1  UNL1       -0.2260
      9 N           6.8322   42.3229    7.2760 N.am    1  UNL1       -0.2298
     10 H           6.3872   42.8672    6.5869 H       1  UNL1        0.1601
     11 O           4.8497   42.6488    8.6540 O.3     1  UNL1       -0.4344
     12 C           2.9742   41.3092    9.3771 C.3     1  UNL1        0.0513
     13 C           4.0117   42.3476    9.7637 C.3     1  UNL1        0.2102
     14 C          11.8767   40.6813    7.2938 C.2     1  UNL1        0.2027
     15 O          12.0797   39.5327    7.7736 O.2     1  UNL1       -0.2860
     16 C          13.0405   41.5689    7.0640 C.ar    1  UNL1        0.0396
     17 C          14.1956   41.4162    7.8465 C.ar    1  UNL1        0.0045
     18 C          15.3139   42.2258    7.6297 C.ar    1  UNL1        0.0184
     19 C          15.2924   43.1960    6.6233 C.ar    1  UNL1        0.1057
     20 C          14.1525   43.3450    5.8277 C.ar    1  UNL1        0.0184
     21 C          13.0353   42.5345    6.0458 C.ar    1  UNL1        0.0045
     22 C          17.7306   44.2050    7.7903 C.3     1  UNL1        0.1816
     23 O          17.4779   43.6749    5.1720 O.2     1  UNL1       -0.1686
     24 O          16.2620   45.6107    6.0392 O.2     1  UNL1       -0.1686
     25 S          16.6994   44.2054    6.3431 S.O2    1  UNL1        0.0104
@<TRIPOS>BOND
     1    12    13    1
     2    13    11    1
     3     7    11    1
     4     7     9   am
     5     1     6   ar
     6     2     5   ar
     7     3     2    1
     8     4     6   ar
     9     4    14    1
    10    14    16    1
    11    17    18   ar
    12    19    20   ar
    13    21    16   ar
    14     9     1    1
    15    25    19    1
    16    25    22    1
    17     7     8    2
    18     1     5   ar
    19     2     4   ar
    20    14    15    2
    21    16    17   ar
    22    18    19   ar
    23    20    21   ar
    24    25    23    2
    25    25    24    2
    26     9    10    1
@<TRIPOS>MOLECULE
MolPort-002-849-489 8715579 LN01247785 MCULE-8954675726 PubChem-11842445 ZINC000008715579 ZINC08715579
 25 26 0 0 0
SMALL
GASTEIGER

@<TRIPOS>ATOM
      1 C          16.1656   35.4984    8.8696 C.ar    1  UNL1        0.1678
      2 C          14.3528   36.1368   10.0265 C.ar    1  UNL1        0.0704
      3 C          12.9616   35.9918   10.5403 C.3     1  UNL1        0.0528
      4 C          15.1961   37.2122   10.3367 C.ar    1  UNL1        0.0845
      5 N          14.8987   35.1883    9.2190 N.ar    1  UNL1       -0.2281
      6 S          16.6627   36.9524    9.5402 S.2     1  UNL1       -0.0484
      7 C          17.9991   33.7856    8.4829 C.2     1  UNL1        0.4068
      8 O          18.2229   33.6437    9.7165 O.2     1  UNL1       -0.2260
      9 N          16.9890   34.6896    8.0241 N.am    1  UNL1       -0.2298
     10 H          16.8499   34.7603    7.0520 H       1  UNL1        0.1601
     11 O          18.7308   33.0556    7.5428 O.3     1  UNL1       -0.4344
     12 C          19.6250   33.9338    5.4779 C.3     1  UNL1        0.0513
     13 C          18.5016   33.1590    6.1423 C.3     1  UNL1        0.2102
     14 C          14.8460   38.4072   11.1433 C.2     1  UNL1        0.2027
     15 O          15.4471   38.5977   12.2356 O.2     1  UNL1       -0.2860
     16 C          13.8120   39.3820   10.7242 C.ar    1  UNL1        0.0396
     17 C          13.9943   40.1248    9.5473 C.ar    1  UNL1        0.0045
     18 C          13.0202   41.0312    9.1201 C.ar    1  UNL1        0.0184
     19 C          11.8483   41.2027    9.8630 C.ar    1  UNL1        0.1057
     20 C          11.6500   40.4556   11.0280 C.ar    1  UNL1        0.0184
     21 C          12.6250   39.5496   11.4535 C.ar    1  UNL1        0.0045
     22 C           9.0561   41.9051   10.0495 C.3     1  UNL1        0.1816
     23 O          10.9998   43.7275    9.7315 O.2     1  UNL1       -0.1686
     24 O          10.5079   42.2791    7.8243 O.2     1  UNL1       -0.1686
     25 S          10.6200   42.3322    9.3220 S.O2    1  UNL1        0.0104
@<TRIPOS>BOND
     1    12    13    1
     2    13    11    1
     3     7    11    1
     4     7     9   am
     5     1     6   ar
     6     2     5   ar
     7     3     2    1
     8     4     6   ar
     9     4    14    1
    10    14    16    1
    11    17    18   ar
    12    19    20   ar
    13    21    16   ar
    14     9     1    1
    15    25    19    1
    16    25    22    1
    17     7     8    2
    18     1     5   ar
    19     2     4   ar
    20    14    15    2
    21    16    17   ar
    22    18    19   ar
    23    20    21   ar
    24    25    23    2
    25    25    24    2
    26     9    10    1
@<TRIPOS>MOLECULE
MolPort-002-849-489 8715579 LN01247785 MCULE-8954675726 PubChem-11842445 ZINC000008715579 ZINC08715579
 25 26 0 0 0
SMALL
GASTEIGER

@<TRIPOS>ATOM
      1 C          10.2330   38.5880    8.2138 C.ar    1  UNL1        0.1678
      2 C          11.9612   37.8574    9.4433 C.ar    1  UNL1        0.0704
      3 C          12.6876   36.8778   10.2995 C.3     1  UNL1        0.0528
      4 C          12.4886   39.0924    9.0427 C.ar    1  UNL1        0.0845
      5 N          10.7145   37.5819    8.9750 N.ar    1  UNL1       -0.2281
      6 S          11.3227   39.8559    8.0884 S.2     1  UNL1       -0.0484
      7 C           8.6455   39.1648    6.3184 C.2     1  UNL1        0.4068
      8 O           9.5459   39.7382    5.6458 O.2     1  UNL1       -0.2260
      9 N           8.9453   38.5811    7.5903 N.am    1  UNL1       -0.2298
     10 H           8.2088   38.1412    8.0733 H       1  UNL1        0.1601
     11 O           7.3397   39.0840    5.8283 O.3     1  UNL1       -0.4344
     12 C           6.8155   40.9981    7.2054 C.3     1  UNL1        0.0513
     13 C           6.2728   39.8662    6.3520 C.3     1  UNL1        0.2102
     14 C          13.7933   39.6708    9.4480 C.2     1  UNL1        0.2027
     15 O          14.3511   39.2346   10.4917 O.2     1  UNL1       -0.2860
     16 C          14.4648   40.7474    8.6830 C.ar    1  UNL1        0.0396
     17 C          13.7441   41.4659    7.7165 C.ar    1  UNL1        0.0045
     18 C          14.3508   42.5020    7.0014 C.ar    1  UNL1        0.0184
     19 C          15.6858   42.8359    7.2477 C.ar    1  UNL1        0.1057
     20 C          16.4075   42.1370    8.2200 C.ar    1  UNL1        0.0184
     21 C          15.7992   41.1014    8.9342 C.ar    1  UNL1        0.0045
     22 C          15.2034   45.2895    5.8084 C.3     1  UNL1        0.1816
     23 O          17.4276   44.8554    7.2455 O.2     1  UNL1       -0.1686
     24 O          17.1777   43.5886    5.1694 O.2     1  UNL1       -0.1686
     25 S          16.4451   44.1435    6.3584 S.O2    1  UNL1        0.0104
@<TRIPOS>BOND
     1    12    13    1
     2    13    11    1
     3     7    11    1
     4     7     9   am
     5     1     6   ar
     6     2     5   ar
     7     3     2    1
     8     4     6   ar
     9     4    14    1
    10    14    16    1
    11    17    18   ar
    12    19    20   ar
    13    21    16   ar
    14     9     1    1
    15    25    19    1
    16    25    22    1
    17     7     8    2
    18     1     5   ar
    19     2     4   ar
    20    14    15    2
    21    16    17   ar
    22    18    19   ar
    23    20    21   ar
    24    25    23    2
    25    25    24    2
    26     9    10    1
@<TRIPOS>MOLECULE
MolPort-002-849-489 8715579 LN01247785 MCULE-8954675726 PubChem-11842445 ZINC000008715579 ZINC08715579
 25 26 0 0 0
SMALL
GASTEIGER

@<TRIPOS>ATOM
      1 C          11.7600   41.9123    6.9135 C.ar    1  UNL1        0.1678
      2 C          10.3448   40.3558    7.6926 C.ar    1  UNL1        0.0704
      3 C           9.6130   39.0584    7.6526 C.3     1  UNL1        0.0528
      4 C          10.2469   41.2803    8.7412 C.ar    1  UNL1        0.0845
      5 N          11.1897   40.7094    6.6872 N.ar    1  UNL1       -0.2281
      6 S          11.2459   42.5877    8.3594 S.2     1  UNL1       -0.0484
      7 C          14.0503   42.8486    6.3451 C.2     1  UNL1        0.4068
      8 O          14.5268   42.5585    7.4768 O.2     1  UNL1       -0.2260
      9 N          12.6889   42.5430    6.0267 N.am    1  UNL1       -0.2298
     10 H          12.3668   42.7853    5.1285 H       1  UNL1        0.1601
     11 O          14.8477   43.4681    5.3796 O.3     1  UNL1       -0.4344
     12 C          17.2133   43.8779    5.6458 C.3     1  UNL1        0.0513
     13 C          15.8134   44.4618    5.7031 C.3     1  UNL1        0.2102
     14 C           9.3648   41.1800    9.9299 C.2     1  UNL1        0.2027
     15 O           9.8765   40.8651   11.0388 O.2     1  UNL1       -0.2860
     16 C           7.9049   41.4248    9.8673 C.ar    1  UNL1        0.0396
     17 C           7.1519   41.4401   11.0517 C.ar    1  UNL1        0.0045
     18 C           5.7781   41.6941   11.0179 C.ar    1  UNL1        0.0184
     19 C           5.1405   41.9408    9.7984 C.ar    1  UNL1        0.1057
     20 C           5.8846   41.9439    8.6149 C.ar    1  UNL1        0.0184
     21 C           7.2583   41.6900    8.6505 C.ar    1  UNL1        0.0045
     22 C           2.7752   42.2936   11.4125 C.3     1  UNL1        0.1816
     23 O           3.1736   43.6026    9.1042 O.2     1  UNL1       -0.1686
     24 O           2.7180   41.2048    8.9609 O.2     1  UNL1       -0.1686
     25 S           3.4181   42.2706    9.7561 S.O2    1  UNL1        0.0104
@<TRIPOS>BOND
     1    12    13    1
     2    13    11    1
     3     7    11    1
     4     7     9   am
     5     1     6   ar
     6     2     5   ar
     7     3     2    1
     8     4     6   ar
     9     4    14    1
    10    14    16    1
    11    17    18   ar
    12    19    20   ar
    13    21    16   ar
    14     9     1    1
    15    25    19    1
    16    25    22    1
    17     7     8    2
    18     1     5   ar
    19     2     4   ar
    20    14    15    2
    21    16    17   ar
    22    18    19   ar
    23    20    21   ar
    24    25    23    2
    25    25    24    2
    26     9    10    1
@<TRIPOS>MOLECULE
MolPort-002-849-489 8715579 LN01247785 MCULE-8954675726 PubChem-11842445 ZINC000008715579 ZINC08715579
 25 26 0 0 0
SMALL
GASTEIGER

@<TRIPOS>ATOM
      1 C           7.0421   42.1807    9.1923 C.ar    1  UNL1        0.1678
      2 C           9.0967   43.0100    9.5433 C.ar    1  UNL1        0.0704
      3 C          10.0888   43.9412   10.1508 C.3     1  UNL1        0.0528
      4 C           9.4318   41.9665    8.6700 C.ar    1  UNL1        0.0845
      5 N           7.7724   43.1184    9.8333 N.ar    1  UNL1       -0.2281
      6 S           7.9979   41.1824    8.2432 S.2     1  UNL1       -0.0484
      7 C           4.6844   43.1199    9.1258 C.2     1  UNL1        0.4068
      8 O           5.0814   44.2844    8.8458 O.2     1  UNL1       -0.2260
      9 N           5.6213   42.0525    9.3017 N.am    1  UNL1       -0.2298
     10 H           5.2605   41.1615    9.5144 H       1  UNL1        0.1601
     11 O           3.3201   42.8515    9.2622 O.3     1  UNL1       -0.4344
     12 C           2.8403   42.0971   11.5062 C.3     1  UNL1        0.0513
     13 C           2.8248   41.7584   10.0266 C.3     1  UNL1        0.2102
     14 C          10.7826   41.6538    8.1421 C.2     1  UNL1        0.2027
     15 O          11.1264   42.1419    7.0311 O.2     1  UNL1       -0.2860
     16 C          11.7421   40.7833    8.8609 C.ar    1  UNL1        0.0396
     17 C          12.7252   40.0888    8.1389 C.ar    1  UNL1        0.0045
     18 C          13.6560   39.2823    8.7993 C.ar    1  UNL1        0.0184
     19 C          13.6180   39.1640   10.1918 C.ar    1  UNL1        0.1057
     20 C          12.6529   39.8646   10.9214 C.ar    1  UNL1        0.0184
     21 C          11.7231   40.6707   10.2594 C.ar    1  UNL1        0.0045
     22 C          14.1525   36.5118   11.1943 C.3     1  UNL1        0.1816
     23 O          16.0727   38.1226   10.2359 O.2     1  UNL1       -0.1686
     24 O          15.0755   38.7330   12.3831 O.2     1  UNL1       -0.1686
     25 S          14.7927   38.1606   11.0227 S.O2    1  UNL1        0.0104
@<TRIPOS>BOND
     1    12    13    1
     2    13    11    1
     3     7    11    1
     4     7     9   am
     5     1     6   ar
     6     2     5   ar
     7     3     2    1
     8     4     6   ar
     9     4    14    1
    10    14    16    1
    11    17    18   ar
    12    19    20   ar
    13    21    16   ar
    14     9     1    1
    15    25    19    1
    16    25    22    1
    17     7     8    2
    18     1     5   ar
    19     2     4   ar
    20    14    15    2
    21    16    17   ar
    22    18    19   ar
    23    20    21   ar
    24    25    23    2
    25    25    24    2
    26     9    10    1
@<TRIPOS>MOLECULE
MolPort-002-849-489 8715579 LN01247785 MCULE-8954675726 PubChem-11842445 ZINC000008715579 ZINC08715579
 25 26 0 0 0
SMALL
GASTEIGER

@<TRIPOS>ATOM
      1 C          14.7197   36.2527    9.2668 C.ar    1  UNL1        0.1678
      2 C          14.9226   37.9872   10.6748 C.ar    1  UNL1        0.0704
      3 C          15.3694   38.6631   11.9254 C.3     1  UNL1        0.0528
      4 C          14.2226   38.6276    9.6434 C.ar    1  UNL1        0.0845
      5 N          15.2002   36.6739   10.4564 N.ar    1  UNL1       -0.2281
      6 S          13.9338   37.4801    8.4381 S.2     1  UNL1       -0.0484
      7 C          15.8054   34.5035    7.7812 C.2     1  UNL1        0.4068
      8 O          16.6126   35.3320    7.2771 O.2     1  UNL1       -0.2260
      9 N          14.8570   34.9182    8.7695 N.am    1  UNL1       -0.2298
     10 H          14.2525   34.2325    9.1352 H       1  UNL1        0.1601
     11 O          15.8290   33.1635    7.3870 O.3     1  UNL1       -0.4344
     12 C          14.3099   31.3825    7.9829 C.3     1  UNL1        0.0513
     13 C          15.6150   32.0909    8.2971 C.3     1  UNL1        0.2102
     14 C          13.7420   40.0313    9.6388 C.2     1  UNL1        0.2027
     15 O          12.8594   40.3718   10.4729 O.2     1  UNL1       -0.2860
     16 C          14.2485   41.0485    8.6882 C.ar    1  UNL1        0.0396
     17 C          15.6024   41.4172    8.7217 C.ar    1  UNL1        0.0045
     18 C          16.1066   42.3560    7.8176 C.ar    1  UNL1        0.0184
     19 C          15.2632   42.9348    6.8647 C.ar    1  UNL1        0.1057
     20 C          13.9167   42.5622    6.8125 C.ar    1  UNL1        0.0184
     21 C          13.4143   41.6231    7.7172 C.ar    1  UNL1        0.0045
     22 C          17.6357   43.8236    5.4842 C.3     1  UNL1        0.1816
     23 O          15.1821   43.9682    4.4076 O.2     1  UNL1       -0.1686
     24 O          15.6821   45.4957    6.2499 O.2     1  UNL1       -0.1686
     25 S          15.8974   44.1052    5.7223 S.O2    1  UNL1        0.0104
@<TRIPOS>BOND
     1    12    13    1
     2    13    11    1
     3     7    11    1
     4     7     9   am
     5     1     6   ar
     6     2     5   ar
     7     3     2    1
     8     4     6   ar
     9     4    14    1
    10    14    16    1
    11    17    18   ar
    12    19    20   ar
    13    21    16   ar
    14     9     1    1
    15    25    19    1
    16    25    22    1
    17     7     8    2
    18     1     5   ar
    19     2     4   ar
    20    14    15    2
    21    16    17   ar
    22    18    19   ar
    23    20    21   ar
    24    25    23    2
    25    25    24    2
    26     9    10    1
