@<TRIPOS>MOLECULE
MolPort-002-626-017 2595778 LN00639015 PubChem-2047979 ZINC000002595778 ZINC02595778
 23 25 0 0 0
SMALL
GASTEIGER

@<TRIPOS>ATOM
      1 C          13.8686   41.9557    6.9498 C.ar    1  UNL1        0.1568
      2 C          13.8274   41.0011    7.9547 C.ar    1  UNL1        0.0689
      3 C          14.6989   40.6227    8.9701 C.ar    1  UNL1        0.0074
      4 C          14.3088   39.5393    9.7763 C.ar    1  UNL1        0.0176
      5 C          15.1301   39.1162   10.8228 C.ar    1  UNL1        0.0015
      6 C          14.7439   38.0379   11.6225 C.ar    1  UNL1       -0.0002
      7 C          13.5366   37.3762   11.3800 C.ar    1  UNL1       -0.0028
      8 C          12.6993   37.7823   10.3359 C.ar    1  UNL1       -0.0042
      9 C          11.4217   37.0481   10.1096 C.3     1  UNL1        0.0326
     10 C          13.0721   38.8660    9.5225 C.ar    1  UNL1        0.0789
     11 C          12.6627   40.3276    7.7335 C.ar    1  UNL1        0.1620
     12 N          12.0411   40.8267    6.6544 N.ar    1  UNL1       -0.2329
     13 N          12.7738   41.8199    6.1612 N.ar    1  UNL1       -0.1527
     14 N          12.2699   39.2726    8.4897 N.ar    1  UNL1       -0.2271
     15 C          14.7559   44.1816    6.0726 C.2     1  UNL1        0.2277
     16 C          15.8857   45.1459    6.1039 C.3     1  UNL1        0.0950
     17 N          14.9169   42.8918    6.6699 N.am    1  UNL1       -0.2679
     18 O          13.6940   44.4924    5.4725 O.2     1  UNL1       -0.2747
     19 H          15.8326   42.6224    6.9111 H       1  UNL1        0.1563
     20 C          10.7781   40.3740    6.0931 C.3     1  UNL1        0.1292
     21 C           9.7651   41.5067    6.1086 C.3     1  UNL1        0.0264
     22 C           8.0467   42.6395    7.5151 C.3     1  UNL1        0.0001
     23 C           9.2960   41.7786    7.5264 C.3     1  UNL1        0.0021
@<TRIPOS>BOND
     1    22    23    1
     2    23    21    1
     3    21    20    1
     4    20    12    1
     5     1    17    1
     6     1     2   ar
     7    16    15    1
     8     3     4   ar
     9     5     6   ar
    10     7     8   ar
    11     9     8    1
    12    10    14   ar
    13    10     4   ar
    14    11    12   ar
    15    11     2   ar
    16    12    13   ar
    17    17    15   am
    18     1    13   ar
    19    15    18    2
    20     2     3   ar
    21     4     5   ar
    22     6     7   ar
    23     8    10   ar
    24    11    14   ar
    25    17    19    1
@<TRIPOS>MOLECULE
MolPort-002-626-017 2595778 LN00639015 PubChem-2047979 ZINC000002595778 ZINC02595778
 23 25 0 0 0
SMALL
GASTEIGER

@<TRIPOS>ATOM
      1 C           8.0733   42.2736    7.7277 C.ar    1  UNL1        0.1568
      2 C           6.9164   41.9131    8.4018 C.ar    1  UNL1        0.0689
      3 C           5.5581   42.0195    8.1240 C.ar    1  UNL1        0.0074
      4 C           4.6662   41.5737    9.1148 C.ar    1  UNL1        0.0176
      5 C           3.2891   41.6387    8.8954 C.ar    1  UNL1        0.0015
      6 C           2.4026   41.1981    9.8809 C.ar    1  UNL1       -0.0002
      7 C           2.8870   40.6919   11.0907 C.ar    1  UNL1       -0.0028
      8 C           4.2627   40.6193   11.3323 C.ar    1  UNL1       -0.0042
      9 C           4.7376   40.0753   12.6365 C.3     1  UNL1        0.0326
     10 C           5.1685   41.0571   10.3510 C.ar    1  UNL1        0.0789
     11 C           7.3590   41.4278    9.5967 C.ar    1  UNL1        0.1620
     12 N           8.6972   41.5024    9.6557 N.ar    1  UNL1       -0.2329
     13 N           9.1459   42.0257    8.5195 N.ar    1  UNL1       -0.1527
     14 N           6.5188   41.0024   10.5726 N.ar    1  UNL1       -0.2271
     15 C           7.3270   43.9364    5.9417 C.2     1  UNL1        0.2277
     16 C           7.7298   44.6875    4.7248 C.3     1  UNL1        0.0950
     17 N           8.1823   42.9072    6.4469 N.am    1  UNL1       -0.2679
     18 O           6.2138   44.1780    6.4774 O.2     1  UNL1       -0.2747
     19 H           8.9136   42.6062    5.8605 H       1  UNL1        0.1563
     20 C           9.5415   41.0907   10.7660 C.3     1  UNL1        0.1292
     21 C          10.5181   40.0198   10.3090 C.3     1  UNL1        0.0264
     22 C          12.5703   41.1322    9.4340 C.3     1  UNL1        0.0001
     23 C          11.9440   40.4331   10.6259 C.3     1  UNL1        0.0021
@<TRIPOS>BOND
     1    22    23    1
     2    23    21    1
     3    21    20    1
     4    20    12    1
     5     1    17    1
     6     1     2   ar
     7    16    15    1
     8     3     4   ar
     9     5     6   ar
    10     7     8   ar
    11     9     8    1
    12    10    14   ar
    13    10     4   ar
    14    11    12   ar
    15    11     2   ar
    16    12    13   ar
    17    17    15   am
    18     1    13   ar
    19    15    18    2
    20     2     3   ar
    21     4     5   ar
    22     6     7   ar
    23     8    10   ar
    24    11    14   ar
    25    17    19    1
@<TRIPOS>MOLECULE
MolPort-002-626-017 2595778 LN00639015 PubChem-2047979 ZINC000002595778 ZINC02595778
 23 25 0 0 0
SMALL
GASTEIGER

@<TRIPOS>ATOM
      1 C          12.8041   39.4942    8.5531 C.ar    1  UNL1        0.1568
      2 C          13.7981   40.4263    8.2960 C.ar    1  UNL1        0.0689
      3 C          15.0608   40.6695    8.8252 C.ar    1  UNL1        0.0074
      4 C          15.7625   41.7780    8.3206 C.ar    1  UNL1        0.0176
      5 C          17.0412   42.0714    8.7976 C.ar    1  UNL1        0.0015
      6 C          17.7376   43.1746    8.2984 C.ar    1  UNL1       -0.0002
      7 C          17.1599   43.9908    7.3214 C.ar    1  UNL1       -0.0028
      8 C          15.8793   43.7163    6.8306 C.ar    1  UNL1       -0.0042
      9 C          15.2986   44.6131    5.7908 C.3     1  UNL1        0.0326
     10 C          15.1653   42.6098    7.3212 C.ar    1  UNL1        0.0789
     11 C          13.2548   41.2483    7.3536 C.ar    1  UNL1        0.1620
     12 N          12.0051   40.8545    7.0657 N.ar    1  UNL1       -0.2329
     13 N          11.7149   39.7852    7.7996 N.ar    1  UNL1       -0.1527
     14 N          13.9067   42.3301    6.8595 N.ar    1  UNL1       -0.2271
     15 C          11.8407   37.4030    9.6532 C.2     1  UNL1        0.2277
     16 C          12.1352   36.2247   10.5090 C.3     1  UNL1        0.0950
     17 N          12.8206   38.4366    9.5200 N.am    1  UNL1       -0.2679
     18 O          10.7127   37.5016    9.1034 O.2     1  UNL1       -0.2747
     19 H          13.5762   38.4198   10.1509 H       1  UNL1        0.1563
     20 C          11.0955   41.4769    6.1168 C.3     1  UNL1        0.1292
     21 C          10.1916   40.4256    5.4947 C.3     1  UNL1        0.0264
     22 C           9.6925   39.1624    3.4043 C.3     1  UNL1        0.0001
     23 C          10.7142   40.0187    4.1288 C.3     1  UNL1        0.0021
@<TRIPOS>BOND
     1    22    23    1
     2    23    21    1
     3    21    20    1
     4    20    12    1
     5     1    17    1
     6     1     2   ar
     7    16    15    1
     8     3     4   ar
     9     5     6   ar
    10     7     8   ar
    11     9     8    1
    12    10    14   ar
    13    10     4   ar
    14    11    12   ar
    15    11     2   ar
    16    12    13   ar
    17    17    15   am
    18     1    13   ar
    19    15    18    2
    20     2     3   ar
    21     4     5   ar
    22     6     7   ar
    23     8    10   ar
    24    11    14   ar
    25    17    19    1
@<TRIPOS>MOLECULE
MolPort-002-626-017 2595778 LN00639015 PubChem-2047979 ZINC000002595778 ZINC02595778
 23 25 0 0 0
SMALL
GASTEIGER

@<TRIPOS>ATOM
      1 C          14.7457   33.2659    3.8352 C.ar    1  UNL1        0.1568
      2 C          15.3297   32.8925    2.6342 C.ar    1  UNL1        0.0689
      3 C          14.8387   32.4231    1.4208 C.ar    1  UNL1        0.0074
      4 C          15.7834   32.0934    0.4336 C.ar    1  UNL1        0.0176
      5 C          15.3585   31.6296   -0.8126 C.ar    1  UNL1        0.0015
      6 C          16.2973   31.2993   -1.7929 C.ar    1  UNL1       -0.0002
      7 C          17.6647   31.4293   -1.5329 C.ar    1  UNL1       -0.0028
      8 C          18.1126   31.8905   -0.2907 C.ar    1  UNL1       -0.0042
      9 C          19.5793   32.0122   -0.0534 C.3     1  UNL1        0.0326
     10 C          17.1816   32.2282    0.7063 C.ar    1  UNL1        0.0789
     11 C          16.6698   32.9955    2.8636 C.ar    1  UNL1        0.1620
     12 N          16.8907   33.3898    4.1267 N.ar    1  UNL1       -0.2329
     13 N          15.7198   33.5517    4.7343 N.ar    1  UNL1       -0.1527
     14 N          17.6008   32.6729    1.9318 N.ar    1  UNL1       -0.2271
     15 C          12.4029   32.2545    3.8310 C.2     1  UNL1        0.2277
     16 C          11.0686   32.2563    4.4843 C.3     1  UNL1        0.0950
     17 N          13.3526   33.2688    4.1711 N.am    1  UNL1       -0.2679
     18 O          12.6579   31.3948    2.9476 O.2     1  UNL1       -0.2747
     19 H          13.0182   34.0402    4.6832 H       1  UNL1        0.1563
     20 C          18.1844   33.6079    4.7545 C.3     1  UNL1        0.1292
     21 C          18.0234   33.6971    6.2629 C.3     1  UNL1        0.0264
     22 C          17.3414   32.4062    8.2835 C.3     1  UNL1        0.0001
     23 C          17.2009   32.5299    6.7779 C.3     1  UNL1        0.0021
@<TRIPOS>BOND
     1    22    23    1
     2    23    21    1
     3    21    20    1
     4    20    12    1
     5     1    17    1
     6     1     2   ar
     7    16    15    1
     8     3     4   ar
     9     5     6   ar
    10     7     8   ar
    11     9     8    1
    12    10    14   ar
    13    10     4   ar
    14    11    12   ar
    15    11     2   ar
    16    12    13   ar
    17    17    15   am
    18     1    13   ar
    19    15    18    2
    20     2     3   ar
    21     4     5   ar
    22     6     7   ar
    23     8    10   ar
    24    11    14   ar
    25    17    19    1
@<TRIPOS>MOLECULE
MolPort-002-626-017 2595778 LN00639015 PubChem-2047979 ZINC000002595778 ZINC02595778
 23 25 0 0 0
SMALL
GASTEIGER

@<TRIPOS>ATOM
      1 C          11.4477   41.6359    7.5679 C.ar    1  UNL1        0.1568
      2 C          12.3524   41.0075    8.4102 C.ar    1  UNL1        0.0689
      3 C          12.2324   40.2309    9.5574 C.ar    1  UNL1        0.0074
      4 C          13.4244   39.8116   10.1729 C.ar    1  UNL1        0.0176
      5 C          13.3765   39.0176   11.3202 C.ar    1  UNL1        0.0015
      6 C          14.5610   38.6032   11.9336 C.ar    1  UNL1       -0.0002
      7 C          15.7990   38.9807   11.4052 C.ar    1  UNL1       -0.0028
      8 C          15.8704   39.7772   10.2577 C.ar    1  UNL1       -0.0042
      9 C          17.2105   40.1595    9.7282 C.3     1  UNL1        0.0326
     10 C          14.6884   40.2020    9.6275 C.ar    1  UNL1        0.0789
     11 C          13.5739   41.3716    7.9261 C.ar    1  UNL1        0.1620
     12 N          13.4257   42.1826    6.8677 N.ar    1  UNL1       -0.2329
     13 N          12.1275   42.3579    6.6430 N.ar    1  UNL1       -0.1527
     14 N          14.7377   40.9897    8.5083 N.ar    1  UNL1       -0.2271
     15 C           9.0987   41.4045    6.5982 C.2     1  UNL1        0.2277
     16 C           7.6643   41.1735    6.9089 C.3     1  UNL1        0.0950
     17 N          10.0181   41.6484    7.6666 N.am    1  UNL1       -0.2679
     18 O           9.4739   41.4378    5.3972 O.2     1  UNL1       -0.2747
     19 H           9.6331   41.8429    8.5516 H       1  UNL1        0.1563
     20 C          14.4894   42.7868    6.0812 C.3     1  UNL1        0.1292
     21 C          15.4561   43.5253    6.9920 C.3     1  UNL1        0.0264
     22 C          17.6915   44.0288    6.0103 C.3     1  UNL1        0.0001
     23 C          16.2713   44.5290    6.1969 C.3     1  UNL1        0.0021
@<TRIPOS>BOND
     1    22    23    1
     2    23    21    1
     3    21    20    1
     4    20    12    1
     5     1    17    1
     6     1     2   ar
     7    16    15    1
     8     3     4   ar
     9     5     6   ar
    10     7     8   ar
    11     9     8    1
    12    10    14   ar
    13    10     4   ar
    14    11    12   ar
    15    11     2   ar
    16    12    13   ar
    17    17    15   am
    18     1    13   ar
    19    15    18    2
    20     2     3   ar
    21     4     5   ar
    22     6     7   ar
    23     8    10   ar
    24    11    14   ar
    25    17    19    1
@<TRIPOS>MOLECULE
MolPort-002-626-017 2595778 LN00639015 PubChem-2047979 ZINC000002595778 ZINC02595778
 23 25 0 0 0
SMALL
GASTEIGER

@<TRIPOS>ATOM
      1 C          16.6903   39.3464   10.1962 C.ar    1  UNL1        0.1568
      2 C          15.3506   39.1957    9.8717 C.ar    1  UNL1        0.0689
      3 C          14.3975   38.2131   10.1159 C.ar    1  UNL1        0.0074
      4 C          13.1229   38.4058    9.5555 C.ar    1  UNL1        0.0176
      5 C          12.1146   37.4651    9.7731 C.ar    1  UNL1        0.0015
      6 C          10.8487   37.6551    9.2141 C.ar    1  UNL1       -0.0002
      7 C          10.5839   38.7846    8.4341 C.ar    1  UNL1       -0.0028
      8 C          11.5797   39.7389    8.2018 C.ar    1  UNL1       -0.0042
      9 C          11.2567   40.9277    7.3622 C.3     1  UNL1        0.0326
     10 C          12.8585   39.5638    8.7576 C.ar    1  UNL1        0.0789
     11 C          15.0671   40.2800    9.0951 C.ar    1  UNL1        0.1620
     12 N          16.1653   41.0349    8.9414 N.ar    1  UNL1       -0.2329
     13 N          17.1683   40.4695    9.6053 N.ar    1  UNL1       -0.1527
     14 N          13.8491   40.4825    8.5340 N.ar    1  UNL1       -0.2271
     15 C          18.0075   37.1802   10.4861 C.2     1  UNL1        0.2277
     16 C          19.0789   36.4932   11.2526 C.3     1  UNL1        0.0950
     17 N          17.5204   38.4461   10.9405 N.am    1  UNL1       -0.2679
     18 O          17.5053   36.6130    9.4809 O.2     1  UNL1       -0.2747
     19 H          17.7795   38.7246   11.8486 H       1  UNL1        0.1563
     20 C          16.2711   42.2685    8.1783 C.3     1  UNL1        0.1292
     21 C          17.5998   42.9473    8.4664 C.3     1  UNL1        0.0264
     22 C          16.8990   43.9256    6.2831 C.3     1  UNL1        0.0001
     23 C          17.8735   44.0328    7.4411 C.3     1  UNL1        0.0021
@<TRIPOS>BOND
     1    22    23    1
     2    23    21    1
     3    21    20    1
     4    20    12    1
     5     1    17    1
     6     1     2   ar
     7    16    15    1
     8     3     4   ar
     9     5     6   ar
    10     7     8   ar
    11     9     8    1
    12    10    14   ar
    13    10     4   ar
    14    11    12   ar
    15    11     2   ar
    16    12    13   ar
    17    17    15   am
    18     1    13   ar
    19    15    18    2
    20     2     3   ar
    21     4     5   ar
    22     6     7   ar
    23     8    10   ar
    24    11    14   ar
    25    17    19    1
@<TRIPOS>MOLECULE
MolPort-002-626-017 2595778 LN00639015 PubChem-2047979 ZINC000002595778 ZINC02595778
 23 25 0 0 0
SMALL
GASTEIGER

@<TRIPOS>ATOM
      1 C          10.6415   41.1182   11.4758 C.ar    1  UNL1        0.1568
      2 C           9.9985   41.4939   10.3061 C.ar    1  UNL1        0.0689
      3 C           8.8561   42.2338   10.0212 C.ar    1  UNL1        0.0074
      4 C           8.4903   42.3495    8.6690 C.ar    1  UNL1        0.0176
      5 C           7.3622   43.0900    8.3114 C.ar    1  UNL1        0.0015
      6 C           6.9970   43.2029    6.9678 C.ar    1  UNL1       -0.0002
      7 C           7.7557   42.5758    5.9752 C.ar    1  UNL1       -0.0028
      8 C           8.8887   41.8276    6.3110 C.ar    1  UNL1       -0.0042
      9 C           9.6686   41.1728    5.2223 C.3     1  UNL1        0.0326
     10 C           9.2708   41.7048    7.6578 C.ar    1  UNL1        0.0789
     11 C          10.7107   40.8820    9.3175 C.ar    1  UNL1        0.1620
     12 N          11.7129   40.1658    9.8490 N.ar    1  UNL1       -0.2329
     13 N          11.6765   40.2967   11.1711 N.ar    1  UNL1       -0.1527
     14 N          10.3717   40.9690    8.0072 N.ar    1  UNL1       -0.2271
     15 C           9.0186   41.0921   13.4448 C.2     1  UNL1        0.2277
     16 C           8.8807   41.2238   14.9183 C.3     1  UNL1        0.0950
     17 N          10.2633   41.4251   12.8236 N.am    1  UNL1       -0.2679
     18 O           8.0223   40.7435   12.7591 O.2     1  UNL1       -0.2747
     19 H          10.9210   41.9100   13.3727 H       1  UNL1        0.1563
     20 C          12.6887   39.3671    9.1244 C.3     1  UNL1        0.1292
     21 C          14.0449   40.0521    9.1495 C.3     1  UNL1        0.0264
     22 C          15.4123   41.7655    7.9624 C.3     1  UNL1        0.0001
     23 C          14.0068   41.3329    8.3356 C.3     1  UNL1        0.0021
@<TRIPOS>BOND
     1    22    23    1
     2    23    21    1
     3    21    20    1
     4    20    12    1
     5     1    17    1
     6     1     2   ar
     7    16    15    1
     8     3     4   ar
     9     5     6   ar
    10     7     8   ar
    11     9     8    1
    12    10    14   ar
    13    10     4   ar
    14    11    12   ar
    15    11     2   ar
    16    12    13   ar
    17    17    15   am
    18     1    13   ar
    19    15    18    2
    20     2     3   ar
    21     4     5   ar
    22     6     7   ar
    23     8    10   ar
    24    11    14   ar
    25    17    19    1
@<TRIPOS>MOLECULE
MolPort-002-626-017 2595778 LN00639015 PubChem-2047979 ZINC000002595778 ZINC02595778
 23 25 0 0 0
SMALL
GASTEIGER

@<TRIPOS>ATOM
      1 C          11.2453   40.2138    7.3264 C.ar    1  UNL1        0.1568
      2 C          12.3149   41.0812    7.1639 C.ar    1  UNL1        0.0689
      3 C          12.5702   42.1609    6.3256 C.ar    1  UNL1        0.0074
      4 C          13.8341   42.7668    6.4308 C.ar    1  UNL1        0.0176
      5 C          14.1514   43.8644    5.6287 C.ar    1  UNL1        0.0015
      6 C          15.4084   44.4651    5.7311 C.ar    1  UNL1       -0.0002
      7 C          16.3549   43.9717    6.6339 C.ar    1  UNL1       -0.0028
      8 C          16.0588   42.8720    7.4459 C.ar    1  UNL1       -0.0042
      9 C          17.0972   42.3756    8.3935 C.3     1  UNL1        0.0326
     10 C          14.7986   42.2566    7.3564 C.ar    1  UNL1        0.0789
     11 C          13.2631   40.6135    8.0249 C.ar    1  UNL1        0.1620
     12 N          12.8092   39.5222    8.6596 N.ar    1  UNL1       -0.2329
     13 N          11.5768   39.2630    8.2348 N.ar    1  UNL1       -0.1527
     14 N          14.4933   41.1733    8.1366 N.ar    1  UNL1       -0.2271
     15 C           8.9720   39.2219    6.7266 C.2     1  UNL1        0.2277
     16 C           7.6369   39.4931    6.1340 C.3     1  UNL1        0.0950
     17 N          10.0056   40.2036    6.6076 N.am    1  UNL1       -0.2679
     18 O           9.1910   38.1103    7.2751 O.2     1  UNL1       -0.2747
     19 H           9.8510   40.9404    5.9732 H       1  UNL1        0.1563
     20 C          13.5253   38.7323    9.6488 C.3     1  UNL1        0.1292
     21 C          13.4554   39.4103   11.0070 C.3     1  UNL1        0.0264
     22 C          14.4995   37.2623   11.7216 C.3     1  UNL1        0.0001
     23 C          14.4234   38.7561   11.9762 C.3     1  UNL1        0.0021
@<TRIPOS>BOND
     1    22    23    1
     2    23    21    1
     3    21    20    1
     4    20    12    1
     5     1    17    1
     6     1     2   ar
     7    16    15    1
     8     3     4   ar
     9     5     6   ar
    10     7     8   ar
    11     9     8    1
    12    10    14   ar
    13    10     4   ar
    14    11    12   ar
    15    11     2   ar
    16    12    13   ar
    17    17    15   am
    18     1    13   ar
    19    15    18    2
    20     2     3   ar
    21     4     5   ar
    22     6     7   ar
    23     8    10   ar
    24    11    14   ar
    25    17    19    1
@<TRIPOS>MOLECULE
MolPort-002-626-017 2595778 LN00639015 PubChem-2047979 ZINC000002595778 ZINC02595778
 23 25 0 0 0
SMALL
GASTEIGER

@<TRIPOS>ATOM
      1 C          12.3559   41.6923    6.1588 C.ar    1  UNL1        0.1568
      2 C          12.6576   40.8404    7.2105 C.ar    1  UNL1        0.0689
      3 C          13.7895   40.6211    7.9878 C.ar    1  UNL1        0.0074
      4 C          13.7159   39.5991    8.9500 C.ar    1  UNL1        0.0176
      5 C          14.8114   39.3352    9.7740 C.ar    1  UNL1        0.0015
      6 C          14.7394   38.3178   10.7284 C.ar    1  UNL1       -0.0002
      7 C          13.5736   37.5583   10.8637 C.ar    1  UNL1       -0.0028
      8 C          12.4647   37.8044   10.0476 C.ar    1  UNL1       -0.0042
      9 C          11.2418   36.9699   10.2225 C.3     1  UNL1        0.0326
     10 C          12.5199   38.8250    9.0831 C.ar    1  UNL1        0.0789
     11 C          11.5393   40.0740    7.3559 C.ar    1  UNL1        0.1620
     12 N          10.6209   40.4232    6.4424 N.ar    1  UNL1       -0.2329
     13 N          11.1124   41.4087    5.6983 N.ar    1  UNL1       -0.1527
     14 N          11.4477   39.0751    8.2686 N.ar    1  UNL1       -0.2271
     15 C          13.9290   43.7008    6.2146 C.2     1  UNL1        0.2277
     16 C          14.9870   44.4466    5.4855 C.3     1  UNL1        0.0950
     17 N          13.2109   42.6627    5.5415 N.am    1  UNL1       -0.2679
     18 O          13.6416   44.0304    7.3950 O.2     1  UNL1       -0.2747
     19 H          13.3135   42.6101    4.5638 H       1  UNL1        0.1563
     20 C           9.3016   39.8362    6.2693 C.3     1  UNL1        0.1292
     21 C           9.3826   38.6366    5.3400 C.3     1  UNL1        0.0264
     22 C           9.7503   37.9104    2.9837 C.3     1  UNL1        0.0001
     23 C           9.4713   39.0914    3.8944 C.3     1  UNL1        0.0021
@<TRIPOS>BOND
     1    22    23    1
     2    23    21    1
     3    21    20    1
     4    20    12    1
     5     1    17    1
     6     1     2   ar
     7    16    15    1
     8     3     4   ar
     9     5     6   ar
    10     7     8   ar
    11     9     8    1
    12    10    14   ar
    13    10     4   ar
    14    11    12   ar
    15    11     2   ar
    16    12    13   ar
    17    17    15   am
    18     1    13   ar
    19    15    18    2
    20     2     3   ar
    21     4     5   ar
    22     6     7   ar
    23     8    10   ar
    24    11    14   ar
    25    17    19    1
@<TRIPOS>MOLECULE
MolPort-002-626-017 2595778 LN00639015 PubChem-2047979 ZINC000002595778 ZINC02595778
 23 25 0 0 0
SMALL
GASTEIGER

@<TRIPOS>ATOM
      1 C          10.5637   41.0307   11.4066 C.ar    1  UNL1        0.1568
      2 C           9.9601   41.4031   10.2150 C.ar    1  UNL1        0.0689
      3 C           8.8860   42.2226    9.8859 C.ar    1  UNL1        0.0074
      4 C           8.5373   42.3041    8.5266 C.ar    1  UNL1        0.0176
      5 C           7.4778   43.1196    8.1250 C.ar    1  UNL1        0.0015
      6 C           7.1294   43.1986    6.7746 C.ar    1  UNL1       -0.0002
      7 C           7.8364   42.4627    5.8191 C.ar    1  UNL1       -0.0028
      8 C           8.9002   41.6381    6.1995 C.ar    1  UNL1       -0.0042
      9 C           9.6263   40.8683    5.1495 C.3     1  UNL1        0.0326
     10 C           9.2646   41.5479    7.5537 C.ar    1  UNL1        0.0789
     11 C          10.6220   40.6865    9.2625 C.ar    1  UNL1        0.1620
     12 N          11.5574   39.9143    9.8357 N.ar    1  UNL1       -0.2329
     13 N          11.5265   40.1109   11.1498 N.ar    1  UNL1       -0.1527
     14 N          10.2974   40.7391    7.9468 N.ar    1  UNL1       -0.2271
     15 C           8.9706   41.1499   13.3964 C.2     1  UNL1        0.2277
     16 C           8.8554   41.3846   14.8589 C.3     1  UNL1        0.0950
     17 N          10.2071   41.4326   12.7351 N.am    1  UNL1       -0.2679
     18 O           7.9627   40.7593   12.7514 O.2     1  UNL1       -0.2747
     19 H          10.8749   41.9514   13.2393 H       1  UNL1        0.1563
     20 C          12.4649   39.0021    9.1579 C.3     1  UNL1        0.1292
     21 C          11.9207   37.5845    9.2186 C.3     1  UNL1        0.0264
     22 C          13.2487   35.5825    9.8838 C.3     1  UNL1        0.0001
     23 C          12.5397   36.8286   10.3803 C.3     1  UNL1        0.0021
@<TRIPOS>BOND
     1    22    23    1
     2    23    21    1
     3    21    20    1
     4    20    12    1
     5     1    17    1
     6     1     2   ar
     7    16    15    1
     8     3     4   ar
     9     5     6   ar
    10     7     8   ar
    11     9     8    1
    12    10    14   ar
    13    10     4   ar
    14    11    12   ar
    15    11     2   ar
    16    12    13   ar
    17    17    15   am
    18     1    13   ar
    19    15    18    2
    20     2     3   ar
    21     4     5   ar
    22     6     7   ar
    23     8    10   ar
    24    11    14   ar
    25    17    19    1
