@<TRIPOS>MOLECULE
MolPort-020-293-018 MCULE-9021263157 PubChem-110265485
 31 34 0 0 0
SMALL
GASTEIGER

@<TRIPOS>ATOM
      1 C          16.8879   42.0051    8.4917 C.ar    1  UNL1        0.1339
      2 C          17.2101   43.3207    8.1317 C.ar    1  UNL1        0.0345
      3 C          16.3194   44.0617    7.3550 C.ar    1  UNL1        0.0041
      4 C          15.1166   43.4891    6.9431 C.ar    1  UNL1        0.0149
      5 C          14.8206   42.1711    7.3172 C.ar    1  UNL1        0.0614
      6 N          15.7070   41.4708    8.0759 N.ar    1  UNL1       -0.2348
      7 C          13.5410   41.5185    6.9012 C.3     1  UNL1        0.0581
      8 C          12.4949   42.5625    6.5109 C.3     1  UNL1        0.0089
      9 C          11.1714   41.8837    6.1756 C.3     1  UNL1        0.0196
     10 C          10.7481   40.9911    7.3389 C.3     1  UNL1        0.0958
     11 C          12.9999   40.6197    8.0140 C.3     1  UNL1        0.1017
     12 N          11.7648   39.9656    7.5797 N.3     1  UNL1       -0.1551
     13 S          11.2096   38.9667    8.8864 S.O2    1  UNL1        0.0633
     14 O          11.0986   39.7941   10.1372 O.2     1  UNL1       -0.1528
     15 O           9.8470   38.4228    8.5563 O.2     1  UNL1       -0.1528
     16 C          12.3144   37.6272    9.1716 C.ar    1  UNL1        0.1222
     17 C          13.5569   37.5930    8.5280 C.ar    1  UNL1        0.0199
     18 C          14.4395   36.5344    8.7622 C.ar    1  UNL1        0.0014
     19 C          14.0828   35.5086    9.6425 C.ar    1  UNL1        0.0001
     20 C          12.8427   35.5407   10.2877 C.ar    1  UNL1        0.0014
     21 C          11.9598   36.5989   10.0529 C.ar    1  UNL1        0.0199
     22 N          17.7664   41.2013    9.2918 N.pl3   1  UNL1       -0.2680
     23 H          18.6934   41.5220    9.3766 H       1  UNL1        0.1565
     24 C          14.6689   38.5267   11.9861 C.3     1  UNL1        0.0522
     25 C          15.9704   38.6721   11.2842 C.ar    1  UNL1        0.0634
     26 C          16.8913   37.6263   11.2984 C.ar    1  UNL1        0.0296
     27 C          18.1012   37.8027   10.6298 C.ar    1  UNL1        0.0634
     28 C          17.4508   39.9846    9.9825 C.ar    1  UNL1        0.2211
     29 C          19.1108   36.7123   10.6202 C.3     1  UNL1        0.0522
     30 N          18.3580   38.9720    9.9873 N.ar    1  UNL1       -0.2179
     31 N          16.2644   39.8266   10.6314 N.ar    1  UNL1       -0.2179
@<TRIPOS>BOND
     1    24    25    1
     2    25    31   ar
     3    26    27   ar
     4    28    30   ar
     5    28    22    1
     6     1     6   ar
     7     2     3   ar
     8     4     5   ar
     9     7     5    1
    10     7     8    1
    11     8     9    1
    12     9    10    1
    13    10    12    1
    14    11    12    1
    15    11     7    1
    16    17    18   ar
    17    19    20   ar
    18    21    16   ar
    19    29    27    1
    20    22     1    1
    21    13    12    1
    22    13    16    1
    23    25    26   ar
    24    27    30   ar
    25    28    31   ar
    26     1     2   ar
    27     3     4   ar
    28     5     6   ar
    29    16    17   ar
    30    18    19   ar
    31    20    21   ar
    32    13    14    2
    33    13    15    2
    34    22    23    1
@<TRIPOS>MOLECULE
MolPort-020-293-018 MCULE-9021263157 PubChem-110265485
 31 34 0 0 0
SMALL
GASTEIGER

@<TRIPOS>ATOM
      1 C          13.9368   40.5001    9.4030 C.ar    1  UNL1        0.1339
      2 C          14.0269   39.6284   10.4968 C.ar    1  UNL1        0.0345
      3 C          12.9462   39.5022   11.3697 C.ar    1  UNL1        0.0041
      4 C          11.7858   40.2429   11.1480 C.ar    1  UNL1        0.0149
      5 C          11.7238   41.1075   10.0465 C.ar    1  UNL1        0.0614
      6 N          12.7923   41.2112    9.2103 N.ar    1  UNL1       -0.2348
      7 C          10.4983   41.9181    9.7683 C.3     1  UNL1        0.0581
      8 C           9.5507   41.9081   10.9677 C.3     1  UNL1        0.0089
      9 C           8.2692   42.6642   10.6341 C.3     1  UNL1        0.0196
     10 C           7.6570   42.0907    9.3592 C.3     1  UNL1        0.0958
     11 C           9.7765   41.4054    8.5212 C.3     1  UNL1        0.1017
     12 N           8.5975   42.2277    8.2458 N.3     1  UNL1       -0.1551
     13 S           7.8310   41.5909    6.8243 S.O2    1  UNL1        0.0633
     14 O           6.6946   40.6925    7.2279 O.2     1  UNL1       -0.1528
     15 O           7.2722   42.7231    6.0075 O.2     1  UNL1       -0.1528
     16 C           8.9735   40.6789    5.8449 C.ar    1  UNL1        0.1222
     17 C          10.1461   41.2887    5.3840 C.ar    1  UNL1        0.0199
     18 C          11.0593   40.5616    4.6147 C.ar    1  UNL1        0.0014
     19 C          10.8034   39.2223    4.3063 C.ar    1  UNL1        0.0001
     20 C           9.6333   38.6102    4.7663 C.ar    1  UNL1        0.0014
     21 C           8.7197   39.3375    5.5350 C.ar    1  UNL1        0.0199
     22 N          15.0173   40.6641    8.4735 N.pl3   1  UNL1       -0.2680
     23 H          15.5013   39.8453    8.2199 H       1  UNL1        0.1565
     24 C          18.4424   44.1316    7.9712 C.3     1  UNL1        0.0522
     25 C          17.1147   43.5706    7.6104 C.ar    1  UNL1        0.0634
     26 C          16.3063   44.2305    6.6868 C.ar    1  UNL1        0.0296
     27 C          15.0673   43.6730    6.3766 C.ar    1  UNL1        0.0634
     28 C          15.4739   41.8830    7.8711 C.ar    1  UNL1        0.2211
     29 C          14.1747   44.3446    5.3966 C.3     1  UNL1        0.0522
     30 N          14.6754   42.5156    6.9708 N.ar    1  UNL1       -0.2179
     31 N          16.6870   42.4159    8.1839 N.ar    1  UNL1       -0.2179
@<TRIPOS>BOND
     1    24    25    1
     2    25    31   ar
     3    26    27   ar
     4    28    30   ar
     5    28    22    1
     6     1     6   ar
     7     2     3   ar
     8     4     5   ar
     9     7     5    1
    10     7     8    1
    11     8     9    1
    12     9    10    1
    13    10    12    1
    14    11    12    1
    15    11     7    1
    16    17    18   ar
    17    19    20   ar
    18    21    16   ar
    19    29    27    1
    20    22     1    1
    21    13    12    1
    22    13    16    1
    23    25    26   ar
    24    27    30   ar
    25    28    31   ar
    26     1     2   ar
    27     3     4   ar
    28     5     6   ar
    29    16    17   ar
    30    18    19   ar
    31    20    21   ar
    32    13    14    2
    33    13    15    2
    34    22    23    1
@<TRIPOS>MOLECULE
MolPort-020-293-018 MCULE-9021263157 PubChem-110265485
 31 34 0 0 0
SMALL
GASTEIGER

@<TRIPOS>ATOM
      1 C          14.0294   40.6416    9.4053 C.ar    1  UNL1        0.1339
      2 C          13.7976   39.6027   10.3170 C.ar    1  UNL1        0.0345
      3 C          12.5504   39.4887   10.9311 C.ar    1  UNL1        0.0041
      4 C          11.5447   40.4076   10.6338 C.ar    1  UNL1        0.0149
      5 C          11.8046   41.4370    9.7187 C.ar    1  UNL1        0.0614
      6 N          13.0301   41.5249    9.1336 N.ar    1  UNL1       -0.2348
      7 C          10.7547   42.4423    9.3674 C.3     1  UNL1        0.0581
      8 C          10.2473   43.1639   10.6158 C.3     1  UNL1        0.0089
      9 C           9.1169   44.1196   10.2502 C.3     1  UNL1        0.0196
     10 C           8.0317   43.3586    9.4935 C.3     1  UNL1        0.0958
     11 C           9.5896   41.7797    8.6308 C.3     1  UNL1        0.1017
     12 N           8.5861   42.7813    8.2677 N.3     1  UNL1       -0.1551
     13 S           7.2991   41.9620    7.4396 S.O2    1  UNL1        0.0633
     14 O           7.1974   42.4828    6.0326 O.2     1  UNL1       -0.1528
     15 O           7.6005   40.4900    7.3789 O.2     1  UNL1       -0.1528
     16 C           5.7626   42.2051    8.2620 C.ar    1  UNL1        0.1222
     17 C           5.1722   41.1530    8.9717 C.ar    1  UNL1        0.0199
     18 C           3.9567   41.3484    9.6340 C.ar    1  UNL1        0.0014
     19 C           3.3297   42.5973    9.5906 C.ar    1  UNL1        0.0001
     20 C           3.9178   43.6505    8.8834 C.ar    1  UNL1        0.0014
     21 C           5.1330   43.4548    8.2203 C.ar    1  UNL1        0.0199
     22 N          15.2922   40.8017    8.7436 N.pl3   1  UNL1       -0.2680
     23 H          15.9205   40.0472    8.8164 H       1  UNL1        0.1565
     24 C          14.5839   44.0922    5.1829 C.3     1  UNL1        0.0522
     25 C          15.4256   43.5352    6.2733 C.ar    1  UNL1        0.0634
     26 C          16.6616   44.1098    6.5632 C.ar    1  UNL1        0.0296
     27 C          17.4218   43.5570    7.5920 C.ar    1  UNL1        0.0634
     28 C          15.7454   41.9336    7.9883 C.ar    1  UNL1        0.2211
     29 C          18.7456   44.1396    7.9335 C.3     1  UNL1        0.0522
     30 N          16.9528   42.4849    8.2825 N.ar    1  UNL1       -0.2179
     31 N          14.9917   42.4631    6.9857 N.ar    1  UNL1       -0.2179
@<TRIPOS>BOND
     1    24    25    1
     2    25    31   ar
     3    26    27   ar
     4    28    30   ar
     5    28    22    1
     6     1     6   ar
     7     2     3   ar
     8     4     5   ar
     9     7     5    1
    10     7     8    1
    11     8     9    1
    12     9    10    1
    13    10    12    1
    14    11    12    1
    15    11     7    1
    16    17    18   ar
    17    19    20   ar
    18    21    16   ar
    19    29    27    1
    20    22     1    1
    21    13    12    1
    22    13    16    1
    23    25    26   ar
    24    27    30   ar
    25    28    31   ar
    26     1     2   ar
    27     3     4   ar
    28     5     6   ar
    29    16    17   ar
    30    18    19   ar
    31    20    21   ar
    32    13    14    2
    33    13    15    2
    34    22    23    1
@<TRIPOS>MOLECULE
MolPort-020-293-018 MCULE-9021263157 PubChem-110265485
 31 34 0 0 0
SMALL
GASTEIGER

@<TRIPOS>ATOM
      1 C          15.5559   39.7836   10.1157 C.ar    1  UNL1        0.1339
      2 C          15.9478   38.9933   11.2047 C.ar    1  UNL1        0.0345
      3 C          14.9833   38.3046   11.9403 C.ar    1  UNL1        0.0041
      4 C          13.6383   38.4071   11.5873 C.ar    1  UNL1        0.0149
      5 C          13.2749   39.2054   10.4940 C.ar    1  UNL1        0.0614
      6 N          14.2361   39.8662    9.7931 N.ar    1  UNL1       -0.2348
      7 C          11.8450   39.3414   10.0776 C.3     1  UNL1        0.0581
      8 C          11.6337   38.8082    8.6607 C.3     1  UNL1        0.0089
      9 C          10.1917   39.0360    8.2207 C.3     1  UNL1        0.0196
     10 C           9.8366   40.5112    8.3842 C.3     1  UNL1        0.0958
     11 C          11.3867   40.7977   10.1674 C.3     1  UNL1        0.1017
     12 N           9.9780   40.9086    9.7861 N.3     1  UNL1       -0.1551
     13 S           9.5283   42.5806    9.9101 S.O2    1  UNL1        0.0633
     14 O           8.9118   42.8349   11.2579 O.2     1  UNL1       -0.1528
     15 O          10.7559   43.4397    9.7814 O.2     1  UNL1       -0.1528
     16 C           8.3790   43.0210    8.6525 C.ar    1  UNL1        0.1222
     17 C           8.4551   42.4204    7.3905 C.ar    1  UNL1        0.0199
     18 C           7.5358   42.7621    6.3943 C.ar    1  UNL1        0.0014
     19 C           6.5364   43.7034    6.6583 C.ar    1  UNL1        0.0001
     20 C           6.4572   44.3042    7.9185 C.ar    1  UNL1        0.0014
     21 C           7.3771   43.9630    8.9145 C.ar    1  UNL1        0.0199
     22 N          16.5075   40.5090    9.3242 N.pl3   1  UNL1       -0.2680
     23 H          17.4508   40.2477    9.4298 H       1  UNL1        0.1565
     24 C          18.0581   44.3621    6.7248 C.3     1  UNL1        0.0522
     25 C          16.9695   43.4356    7.1301 C.ar    1  UNL1        0.0634
     26 C          15.6861   43.5984    6.6124 C.ar    1  UNL1        0.0296
     27 C          14.6924   42.7099    7.0189 C.ar    1  UNL1        0.0634
     28 C          16.2437   41.5709    8.3969 C.ar    1  UNL1        0.2211
     29 C          13.3104   42.8483    6.4905 C.3     1  UNL1        0.0522
     30 N          14.9872   41.7175    7.8987 N.ar    1  UNL1       -0.2179
     31 N          17.2247   42.4315    8.0088 N.ar    1  UNL1       -0.2179
@<TRIPOS>BOND
     1    24    25    1
     2    25    31   ar
     3    26    27   ar
     4    28    30   ar
     5    28    22    1
     6     1     6   ar
     7     2     3   ar
     8     4     5   ar
     9     7     5    1
    10     7     8    1
    11     8     9    1
    12     9    10    1
    13    10    12    1
    14    11    12    1
    15    11     7    1
    16    17    18   ar
    17    19    20   ar
    18    21    16   ar
    19    29    27    1
    20    22     1    1
    21    13    12    1
    22    13    16    1
    23    25    26   ar
    24    27    30   ar
    25    28    31   ar
    26     1     2   ar
    27     3     4   ar
    28     5     6   ar
    29    16    17   ar
    30    18    19   ar
    31    20    21   ar
    32    13    14    2
    33    13    15    2
    34    22    23    1
@<TRIPOS>MOLECULE
MolPort-020-293-018 MCULE-9021263157 PubChem-110265485
 31 34 0 0 0
SMALL
GASTEIGER

@<TRIPOS>ATOM
      1 C          13.7083   40.2450    9.2388 C.ar    1  UNL1        0.1339
      2 C          13.2364   40.1291   10.5534 C.ar    1  UNL1        0.0345
      3 C          11.9188   39.7318   10.7813 C.ar    1  UNL1        0.0041
      4 C          11.0821   39.4533    9.7013 C.ar    1  UNL1        0.0149
      5 C          11.5804   39.5784    8.3972 C.ar    1  UNL1        0.0614
      6 N          12.8700   39.9671    8.2030 N.ar    1  UNL1       -0.2348
      7 C          10.7198   39.2863    7.2096 C.3     1  UNL1        0.0581
      8 C          11.4053   39.7237    5.9152 C.3     1  UNL1        0.0089
      9 C          10.4782   39.5002    4.7255 C.3     1  UNL1        0.0196
     10 C           9.1439   40.1952    4.9824 C.3     1  UNL1        0.0958
     11 C           9.3575   39.9687    7.3419 C.3     1  UNL1        0.1017
     12 N           8.5174   39.6482    6.1871 N.3     1  UNL1       -0.1551
     13 S           6.9945   40.4528    6.4034 S.O2    1  UNL1        0.0633
     14 O           6.9400   41.6680    5.5193 O.2     1  UNL1       -0.1528
     15 O           5.8785   39.5270    6.0050 O.2     1  UNL1       -0.1528
     16 C           6.7707   40.9423    8.0787 C.ar    1  UNL1        0.1222
     17 C           5.5012   40.8790    8.6648 C.ar    1  UNL1        0.0199
     18 C           5.3246   41.2577    9.9989 C.ar    1  UNL1        0.0014
     19 C           6.4175   41.6984   10.7510 C.ar    1  UNL1        0.0001
     20 C           7.6872   41.7616   10.1685 C.ar    1  UNL1        0.0014
     21 C           7.8636   41.3836    8.8341 C.ar    1  UNL1        0.0199
     22 N          15.0551   40.6459    8.9494 N.pl3   1  UNL1       -0.2680
     23 H          15.7676   40.0702    9.3102 H       1  UNL1        0.1565
     24 C          18.4932   43.9540    7.8346 C.3     1  UNL1        0.0522
     25 C          17.1296   43.3974    7.6388 C.ar    1  UNL1        0.0634
     26 C          16.2603   43.9871    6.7231 C.ar    1  UNL1        0.0296
     27 C          14.9894   43.4363    6.5700 C.ar    1  UNL1        0.0634
     28 C          15.4837   41.7881    8.1954 C.ar    1  UNL1        0.2211
     29 C          14.0317   44.0347    5.6039 C.3     1  UNL1        0.0522
     30 N          14.6257   42.3527    7.3046 N.ar    1  UNL1       -0.2179
     31 N          16.7286   42.3153    8.3556 N.ar    1  UNL1       -0.2179
@<TRIPOS>BOND
     1    24    25    1
     2    25    31   ar
     3    26    27   ar
     4    28    30   ar
     5    28    22    1
     6     1     6   ar
     7     2     3   ar
     8     4     5   ar
     9     7     5    1
    10     7     8    1
    11     8     9    1
    12     9    10    1
    13    10    12    1
    14    11    12    1
    15    11     7    1
    16    17    18   ar
    17    19    20   ar
    18    21    16   ar
    19    29    27    1
    20    22     1    1
    21    13    12    1
    22    13    16    1
    23    25    26   ar
    24    27    30   ar
    25    28    31   ar
    26     1     2   ar
    27     3     4   ar
    28     5     6   ar
    29    16    17   ar
    30    18    19   ar
    31    20    21   ar
    32    13    14    2
    33    13    15    2
    34    22    23    1
@<TRIPOS>MOLECULE
MolPort-020-293-018 MCULE-9021263157 PubChem-110265485
 31 34 0 0 0
SMALL
GASTEIGER

@<TRIPOS>ATOM
      1 C          14.1087   39.8429    9.5864 C.ar    1  UNL1        0.1339
      2 C          13.9323   38.4656    9.7767 C.ar    1  UNL1        0.0345
      3 C          12.6753   37.9725   10.1267 C.ar    1  UNL1        0.0041
      4 C          11.6050   38.8521   10.2845 C.ar    1  UNL1        0.0149
      5 C          11.8104   40.2247   10.0887 C.ar    1  UNL1        0.0614
      6 N          13.0468   40.6790    9.7471 N.ar    1  UNL1       -0.2348
      7 C          10.6905   41.2036   10.2436 C.3     1  UNL1        0.0581
      8 C           9.9544   40.9895   11.5660 C.3     1  UNL1        0.0089
      9 C           8.7631   41.9360   11.6662 C.3     1  UNL1        0.0196
     10 C           7.8780   41.7723   10.4337 C.3     1  UNL1        0.0958
     11 C           9.7119   41.1030    9.0725 C.3     1  UNL1        0.1017
     12 N           8.6396   42.0875    9.2239 N.3     1  UNL1       -0.1551
     13 S           7.5713   41.9164    7.8665 S.O2    1  UNL1        0.0633
     14 O           8.2798   42.3515    6.6135 O.2     1  UNL1       -0.1528
     15 O           7.1840   40.4713    7.7137 O.2     1  UNL1       -0.1528
     16 C           6.1184   42.8860    8.0794 C.ar    1  UNL1        0.1222
     17 C           5.1021   42.4486    8.9368 C.ar    1  UNL1        0.0199
     18 C           3.9522   43.2235    9.1145 C.ar    1  UNL1        0.0014
     19 C           3.8167   44.4390    8.4372 C.ar    1  UNL1        0.0001
     20 C           4.8308   44.8790    7.5809 C.ar    1  UNL1        0.0014
     21 C           5.9804   44.1036    7.4026 C.ar    1  UNL1        0.0199
     22 N          15.3791   40.4012    9.2223 N.pl3   1  UNL1       -0.2680
     23 H          16.1740   39.9471    9.5844 H       1  UNL1        0.1565
     24 C          18.3057   44.0605    7.7898 C.3     1  UNL1        0.0522
     25 C          17.0220   43.3201    7.6819 C.ar    1  UNL1        0.0634
     26 C          16.0502   43.7374    6.7745 C.ar    1  UNL1        0.0296
     27 C          14.8591   43.0174    6.7049 C.ar    1  UNL1        0.0634
     28 C          15.6252   41.5443    8.3918 C.ar    1  UNL1        0.2211
     29 C          13.7968   43.4288    5.7505 C.3     1  UNL1        0.0522
     30 N          14.6688   41.9397    7.5101 N.ar    1  UNL1       -0.2179
     31 N          16.7939   42.2381    8.4708 N.ar    1  UNL1       -0.2179
@<TRIPOS>BOND
     1    24    25    1
     2    25    31   ar
     3    26    27   ar
     4    28    30   ar
     5    28    22    1
     6     1     6   ar
     7     2     3   ar
     8     4     5   ar
     9     7     5    1
    10     7     8    1
    11     8     9    1
    12     9    10    1
    13    10    12    1
    14    11    12    1
    15    11     7    1
    16    17    18   ar
    17    19    20   ar
    18    21    16   ar
    19    29    27    1
    20    22     1    1
    21    13    12    1
    22    13    16    1
    23    25    26   ar
    24    27    30   ar
    25    28    31   ar
    26     1     2   ar
    27     3     4   ar
    28     5     6   ar
    29    16    17   ar
    30    18    19   ar
    31    20    21   ar
    32    13    14    2
    33    13    15    2
    34    22    23    1
@<TRIPOS>MOLECULE
MolPort-020-293-018 MCULE-9021263157 PubChem-110265485
 31 34 0 0 0
SMALL
GASTEIGER

@<TRIPOS>ATOM
      1 C          14.1790   39.9008    9.5179 C.ar    1  UNL1        0.1339
      2 C          14.0221   38.5256    9.7384 C.ar    1  UNL1        0.0345
      3 C          12.7789   38.0262   10.1266 C.ar    1  UNL1        0.0041
      4 C          11.7028   38.8973   10.2920 C.ar    1  UNL1        0.0149
      5 C          11.8886   40.2680   10.0653 C.ar    1  UNL1        0.0614
      6 N          13.1118   40.7286    9.6868 N.ar    1  UNL1       -0.2348
      7 C          10.7618   41.2378   10.2271 C.3     1  UNL1        0.0581
      8 C          10.0510   41.0338   11.5649 C.3     1  UNL1        0.0089
      9 C           8.8522   41.9698   11.6736 C.3     1  UNL1        0.0196
     10 C           7.9474   41.7814   10.4591 C.3     1  UNL1        0.0958
     11 C           9.7641   41.1122    9.0748 C.3     1  UNL1        0.1017
     12 N           8.6848   42.0881    9.2322 N.3     1  UNL1       -0.1551
     13 S           7.5948   41.8888    7.8959 S.O2    1  UNL1        0.0633
     14 O           8.2802   42.3054    6.6240 O.2     1  UNL1       -0.1528
     15 O           7.2119   40.4396    7.7746 O.2     1  UNL1       -0.1528
     16 C           6.1410   42.8553    8.1165 C.ar    1  UNL1        0.1222
     17 C           6.0244   44.1009    7.4888 C.ar    1  UNL1        0.0199
     18 C           4.8653   44.8646    7.6551 C.ar    1  UNL1        0.0014
     19 C           3.8188   44.3835    8.4475 C.ar    1  UNL1        0.0001
     20 C           3.9320   43.1390    9.0749 C.ar    1  UNL1        0.0014
     21 C           5.0916   42.3756    8.9092 C.ar    1  UNL1        0.0199
     22 N          15.4345   40.4653    9.1140 N.pl3   1  UNL1       -0.2680
     23 H          16.2427   40.0054    9.4374 H       1  UNL1        0.1565
     24 C          13.8408   43.6233    5.7236 C.3     1  UNL1        0.0522
     25 C          14.9005   43.1619    6.6574 C.ar    1  UNL1        0.0634
     26 C          16.1092   43.8510    6.7361 C.ar    1  UNL1        0.0296
     27 C          17.0782   43.3854    7.6227 C.ar    1  UNL1        0.0634
     28 C          15.6487   41.6222    8.2938 C.ar    1  UNL1        0.2211
     29 C          18.3809   44.0914    7.7377 C.3     1  UNL1        0.0522
     30 N          16.8322   42.2857    8.3817 N.ar    1  UNL1       -0.2179
     31 N          14.6926   42.0656    7.4320 N.ar    1  UNL1       -0.2179
@<TRIPOS>BOND
     1    24    25    1
     2    25    31   ar
     3    26    27   ar
     4    28    30   ar
     5    28    22    1
     6     1     6   ar
     7     2     3   ar
     8     4     5   ar
     9     7     5    1
    10     7     8    1
    11     8     9    1
    12     9    10    1
    13    10    12    1
    14    11    12    1
    15    11     7    1
    16    17    18   ar
    17    19    20   ar
    18    21    16   ar
    19    29    27    1
    20    22     1    1
    21    13    12    1
    22    13    16    1
    23    25    26   ar
    24    27    30   ar
    25    28    31   ar
    26     1     2   ar
    27     3     4   ar
    28     5     6   ar
    29    16    17   ar
    30    18    19   ar
    31    20    21   ar
    32    13    14    2
    33    13    15    2
    34    22    23    1
@<TRIPOS>MOLECULE
MolPort-020-293-018 MCULE-9021263157 PubChem-110265485
 31 34 0 0 0
SMALL
GASTEIGER

@<TRIPOS>ATOM
      1 C          16.6206   41.9352    8.3193 C.ar    1  UNL1        0.1339
      2 C          16.9967   43.0180    7.5128 C.ar    1  UNL1        0.0345
      3 C          16.0498   43.6267    6.6891 C.ar    1  UNL1        0.0041
      4 C          14.7380   43.1545    6.6740 C.ar    1  UNL1        0.0149
      5 C          14.3900   42.0695    7.4903 C.ar    1  UNL1        0.0614
      6 N          15.3332   41.4944    8.2849 N.ar    1  UNL1       -0.2348
      7 C          12.9944   41.5326    7.5088 C.3     1  UNL1        0.0581
      8 C          12.3196   41.7135    6.1493 C.3     1  UNL1        0.0089
      9 C          10.8708   41.2423    6.2124 C.3     1  UNL1        0.0196
     10 C          10.1537   41.9533    7.3567 C.3     1  UNL1        0.0958
     11 C          12.1652   42.2059    8.6034 C.3     1  UNL1        0.1017
     12 N          10.8124   41.6479    8.6279 N.3     1  UNL1       -0.1551
     13 S           9.9319   42.4552    9.8874 S.O2    1  UNL1        0.0633
     14 O           9.8933   41.5816   11.1108 O.2     1  UNL1       -0.1528
     15 O          10.6314   43.7379   10.2437 O.2     1  UNL1       -0.1528
     16 C           8.2866   42.8151    9.3778 C.ar    1  UNL1        0.1222
     17 C           7.3049   41.8183    9.4199 C.ar    1  UNL1        0.0199
     18 C           5.9951   42.1063    9.0251 C.ar    1  UNL1        0.0014
     19 C           5.6631   43.3926    8.5895 C.ar    1  UNL1        0.0001
     20 C           6.6415   44.3907    8.5474 C.ar    1  UNL1        0.0014
     21 C           7.9516   44.1024    8.9415 C.ar    1  UNL1        0.0199
     22 N          17.5538   41.2761    9.1870 N.pl3   1  UNL1       -0.2680
     23 H          18.4206   41.7250    9.3153 H       1  UNL1        0.1565
     24 C          19.2567   36.9102   10.6173 C.3     1  UNL1        0.0522
     25 C          18.1713   37.9247   10.5935 C.ar    1  UNL1        0.0634
     26 C          16.9684   37.6749   11.2511 C.ar    1  UNL1        0.0296
     27 C          15.9748   38.6508   11.2035 C.ar    1  UNL1        0.0634
     28 C          17.3703   40.0390    9.8891 C.ar    1  UNL1        0.2211
     29 C          14.6773   38.4243   11.8918 C.3     1  UNL1        0.0522
     30 N          16.1921   39.8090   10.5273 N.ar    1  UNL1       -0.2179
     31 N          18.3503   39.0947    9.9270 N.ar    1  UNL1       -0.2179
@<TRIPOS>BOND
     1    24    25    1
     2    25    31   ar
     3    26    27   ar
     4    28    30   ar
     5    28    22    1
     6     1     6   ar
     7     2     3   ar
     8     4     5   ar
     9     7     5    1
    10     7     8    1
    11     8     9    1
    12     9    10    1
    13    10    12    1
    14    11    12    1
    15    11     7    1
    16    17    18   ar
    17    19    20   ar
    18    21    16   ar
    19    29    27    1
    20    22     1    1
    21    13    12    1
    22    13    16    1
    23    25    26   ar
    24    27    30   ar
    25    28    31   ar
    26     1     2   ar
    27     3     4   ar
    28     5     6   ar
    29    16    17   ar
    30    18    19   ar
    31    20    21   ar
    32    13    14    2
    33    13    15    2
    34    22    23    1
@<TRIPOS>MOLECULE
MolPort-020-293-018 MCULE-9021263157 PubChem-110265485
 31 34 0 0 0
SMALL
GASTEIGER

@<TRIPOS>ATOM
      1 C          16.8689   42.0954    8.5568 C.ar    1  UNL1        0.1339
      2 C          17.2260   43.4087    8.2220 C.ar    1  UNL1        0.0345
      3 C          16.4009   44.1552    7.3808 C.ar    1  UNL1        0.0041
      4 C          15.2286   43.5905    6.8799 C.ar    1  UNL1        0.0149
      5 C          14.8967   42.2747    7.2306 C.ar    1  UNL1        0.0614
      6 N          15.7191   41.5688    8.0536 N.ar    1  UNL1       -0.2348
      7 C          13.6475   41.6303    6.7198 C.3     1  UNL1        0.0581
      8 C          12.6754   42.6760    6.1739 C.3     1  UNL1        0.0089
      9 C          11.3737   42.0107    5.7401 C.3     1  UNL1        0.0196
     10 C          10.8113   41.1900    6.8974 C.3     1  UNL1        0.0958
     11 C          12.9728   40.8035    7.8153 C.3     1  UNL1        0.1017
     12 N          11.7697   40.1558    7.2909 N.3     1  UNL1       -0.1551
     13 S          11.0587   39.2395    8.5826 S.O2    1  UNL1        0.0633
     14 O          10.0352   38.2920    8.0203 O.2     1  UNL1       -0.1528
     15 O          12.1253   38.4313    9.2687 O.2     1  UNL1       -0.1528
     16 C          10.2876   40.2976    9.7583 C.ar    1  UNL1        0.1222
     17 C           9.0770   40.9277    9.4476 C.ar    1  UNL1        0.0199
     18 C           8.4585   41.7601   10.3851 C.ar    1  UNL1        0.0014
     19 C           9.0479   41.9626   11.6366 C.ar    1  UNL1        0.0001
     20 C          10.2567   41.3335   11.9501 C.ar    1  UNL1        0.0014
     21 C          10.8756   40.5017   11.0122 C.ar    1  UNL1        0.0199
     22 N          17.6797   41.2862    9.4205 N.pl3   1  UNL1       -0.2680
     23 H          18.5685   41.6450    9.6453 H       1  UNL1        0.1565
     24 C          18.7857   36.5914   10.2822 C.3     1  UNL1        0.0522
     25 C          17.8580   37.7433   10.4245 C.ar    1  UNL1        0.0634
     26 C          16.6566   37.5904   11.1138 C.ar    1  UNL1        0.0296
     27 C          15.8132   38.6943   11.2235 C.ar    1  UNL1        0.0634
     28 C          17.3454   40.0150    9.9943 C.ar    1  UNL1        0.2211
     29 C          14.5227   38.5741   11.9506 C.3     1  UNL1        0.0522
     30 N          16.1705   39.8803   10.6651 N.ar    1  UNL1       -0.2179
     31 N          18.1795   38.9452    9.8791 N.ar    1  UNL1       -0.2179
@<TRIPOS>BOND
     1    24    25    1
     2    25    31   ar
     3    26    27   ar
     4    28    30   ar
     5    28    22    1
     6     1     6   ar
     7     2     3   ar
     8     4     5   ar
     9     7     5    1
    10     7     8    1
    11     8     9    1
    12     9    10    1
    13    10    12    1
    14    11    12    1
    15    11     7    1
    16    17    18   ar
    17    19    20   ar
    18    21    16   ar
    19    29    27    1
    20    22     1    1
    21    13    12    1
    22    13    16    1
    23    25    26   ar
    24    27    30   ar
    25    28    31   ar
    26     1     2   ar
    27     3     4   ar
    28     5     6   ar
    29    16    17   ar
    30    18    19   ar
    31    20    21   ar
    32    13    14    2
    33    13    15    2
    34    22    23    1
@<TRIPOS>MOLECULE
MolPort-020-293-018 MCULE-9021263157 PubChem-110265485
 31 34 0 0 0
SMALL
GASTEIGER

@<TRIPOS>ATOM
      1 C          14.2053   42.2747    6.8911 C.ar    1  UNL1        0.1339
      2 C          14.9517   43.3484    6.3869 C.ar    1  UNL1        0.0345
      3 C          16.2206   43.6100    6.9037 C.ar    1  UNL1        0.0041
      4 C          16.7366   42.8026    7.9167 C.ar    1  UNL1        0.0149
      5 C          15.9677   41.7361    8.4026 C.ar    1  UNL1        0.0614
      6 N          14.7330   41.5027    7.8802 N.ar    1  UNL1       -0.2348
      7 C          16.4827   40.8424    9.4853 C.3     1  UNL1        0.0581
      8 C          17.9191   40.4053    9.1983 C.3     1  UNL1        0.0089
      9 C          18.3957   39.4255   10.2650 C.3     1  UNL1        0.0196
     10 C          17.4076   38.2672   10.3701 C.3     1  UNL1        0.0958
     11 C          15.5826   39.6178    9.6563 C.3     1  UNL1        0.1017
     12 N          16.0831   38.7699   10.7391 N.3     1  UNL1       -0.1551
     13 S          15.0184   37.4056   10.8755 S.O2    1  UNL1        0.0633
     14 O          15.4757   36.3182    9.9429 O.2     1  UNL1       -0.1528
     15 O          15.0644   36.8738   12.2814 O.2     1  UNL1       -0.1528
     16 C          13.3634   37.8534   10.4795 C.ar    1  UNL1        0.1222
     17 C          12.8650   39.1051   10.8589 C.ar    1  UNL1        0.0199
     18 C          11.5536   39.4656   10.5354 C.ar    1  UNL1        0.0014
     19 C          10.7381   38.5762    9.8295 C.ar    1  UNL1        0.0001
     20 C          11.2336   37.3254    9.4481 C.ar    1  UNL1        0.0014
     21 C          12.5449   36.9647    9.7724 C.ar    1  UNL1        0.0199
     22 N          12.8974   41.9602    6.3924 N.pl3   1  UNL1       -0.2680
     23 H          12.8531   41.6262    5.4673 H       1  UNL1        0.1565
     24 C          10.3813   42.9364   10.4818 C.3     1  UNL1        0.0522
     25 C          10.4087   42.5438    9.0490 C.ar    1  UNL1        0.0634
     26 C           9.2177   42.2828    8.3743 C.ar    1  UNL1        0.0296
     27 C           9.2861   41.9157    7.0317 C.ar    1  UNL1        0.0634
     28 C          11.6471   42.0759    7.0853 C.ar    1  UNL1        0.2211
     29 C           8.0395   41.6288    6.2754 C.3     1  UNL1        0.0522
     30 N          10.4927   41.8194    6.4145 N.ar    1  UNL1       -0.2179
     31 N          11.5957   42.4357    8.3974 N.ar    1  UNL1       -0.2179
@<TRIPOS>BOND
     1    24    25    1
     2    25    31   ar
     3    26    27   ar
     4    28    30   ar
     5    28    22    1
     6     1     6   ar
     7     2     3   ar
     8     4     5   ar
     9     7     5    1
    10     7     8    1
    11     8     9    1
    12     9    10    1
    13    10    12    1
    14    11    12    1
    15    11     7    1
    16    17    18   ar
    17    19    20   ar
    18    21    16   ar
    19    29    27    1
    20    22     1    1
    21    13    12    1
    22    13    16    1
    23    25    26   ar
    24    27    30   ar
    25    28    31   ar
    26     1     2   ar
    27     3     4   ar
    28     5     6   ar
    29    16    17   ar
    30    18    19   ar
    31    20    21   ar
    32    13    14    2
    33    13    15    2
    34    22    23    1
