@<TRIPOS>MOLECULE
MolPort-007-967-231 ChemDiv-L497-0056 MCULE-7478783920 PubChem-46385455 ZINC000033129565 ZINC33129565
 29 31 0 0 0
SMALL
GASTEIGER

@<TRIPOS>ATOM
      1 C          11.1858   41.2769    8.2111 C.2     1  UNL1        0.2306
      2 O          11.2747   42.5182    8.4071 O.2     1  UNL1       -0.2744
      3 N          10.0081   40.5572    8.5874 N.am    1  UNL1       -0.2835
      4 H           9.8695   39.6710    8.1815 H       1  UNL1        0.1549
      5 C           9.0147   41.0234    9.5079 C.ar    1  UNL1        0.0542
      6 C           9.2554   41.3534   10.8447 C.ar    1  UNL1        0.0223
      7 C          10.5410   41.2232   11.5854 C.3     1  UNL1        0.0395
      8 C           6.8618   41.5234   10.1912 C.ar    1  UNL1        0.1526
      9 C           7.6651   41.0995    9.1421 C.ar    1  UNL1        0.0414
     10 S           7.7958   41.7607   11.5685 S.2     1  UNL1       -0.0703
     11 O           4.6701   42.5634   11.2658 O.2     1  UNL1       -0.1523
     12 O           4.4646   40.3639   10.2134 O.2     1  UNL1       -0.1523
     13 S           5.1208   41.7140   10.1102 S.O2    1  UNL1        0.0690
     14 C           3.6056   43.4192    8.8884 C.3     1  UNL1        0.0959
     15 C           3.9527   44.7285    8.2252 C.3     1  UNL1        0.0206
     16 C           5.4530   44.7282    8.1893 C.3     1  UNL1        0.0206
     17 C           5.8314   43.2637    8.1591 C.3     1  UNL1        0.0959
     18 N           4.6860   42.4779    8.6130 N.3     1  UNL1       -0.1551
     19 C          12.3158   40.5505    7.5671 C.3     1  UNL1        0.1117
     20 C          15.4863   43.3240    6.6942 C.ar    1  UNL1        0.1724
     21 C          14.3110   43.3091    5.9227 C.ar    1  UNL1        0.0397
     22 C          13.2857   42.4050    6.1997 C.ar    1  UNL1       -0.0005
     23 C          13.4224   41.4976    7.2503 C.ar    1  UNL1       -0.0099
     24 C          14.5814   41.5064    8.0300 C.ar    1  UNL1        0.0363
     25 C          15.6205   42.4070    7.7679 C.ar    1  UNL1        0.1721
     26 C          17.5715   43.9444    5.5040 C.3     1  UNL1        0.2526
     27 O          16.5076   44.2354    6.4011 O.3     1  UNL1       -0.4684
     28 C          17.5068   43.4621    9.0300 C.3     1  UNL1        0.2526
     29 O          16.7469   42.3411    8.6017 O.3     1  UNL1       -0.4684
@<TRIPOS>BOND
     1    26    27    1
     2    20    27    1
     3    21    22   ar
     4    23    24   ar
     5    19    23    1
     6    19     1    1
     7     1     3   am
     8     6    10   ar
     9     7     6    1
    10     8    10   ar
    11     9     5   ar
    12    14    18    1
    13    14    15    1
    14    15    16    1
    15    16    17    1
    16    17    18    1
    17    25    29    1
    18    25    20   ar
    19    28    29    1
    20     3     5    1
    21    13     8    1
    22    13    18    1
    23    20    21   ar
    24    22    23   ar
    25     1     2    2
    26     5     6   ar
    27     8     9   ar
    28    24    25   ar
    29    13    11    2
    30    13    12    2
    31     3     4    1
@<TRIPOS>MOLECULE
MolPort-007-967-231 ChemDiv-L497-0056 MCULE-7478783920 PubChem-46385455 ZINC000033129565 ZINC33129565
 29 31 0 0 0
SMALL
GASTEIGER

@<TRIPOS>ATOM
      1 C          10.5120   40.3182    8.0364 C.2     1  UNL1        0.2306
      2 O          10.3647   39.2209    8.6376 O.2     1  UNL1       -0.2744
      3 N           9.9537   41.5248    8.5643 N.am    1  UNL1       -0.2835
      4 H          10.3115   42.3765    8.2239 H       1  UNL1        0.1549
      5 C           8.9154   41.5923    9.5487 C.ar    1  UNL1        0.0542
      6 C           9.1183   41.5310   10.9302 C.ar    1  UNL1        0.0223
      7 C          10.4096   41.3164   11.6407 C.3     1  UNL1        0.0395
      8 C           6.7208   41.6454   10.2788 C.ar    1  UNL1        0.1526
      9 C           7.5657   41.6372    9.1780 C.ar    1  UNL1        0.0414
     10 S           7.6229   41.5541   11.6942 S.2     1  UNL1       -0.0703
     11 O           4.4444   42.4753   11.3599 O.2     1  UNL1       -0.1523
     12 O           4.4411   40.2692   10.3013 O.2     1  UNL1       -0.1523
     13 S           4.9695   41.6744   10.2011 S.O2    1  UNL1        0.0690
     14 C           3.4452   43.3977    9.0164 C.3     1  UNL1        0.0959
     15 C           3.7996   44.6638    8.2774 C.3     1  UNL1        0.0206
     16 C           5.2924   44.5950    8.1391 C.3     1  UNL1        0.0206
     17 C           5.6059   43.1149    8.1436 C.3     1  UNL1        0.0959
     18 N           4.4632   42.3991    8.7068 N.3     1  UNL1       -0.1551
     19 C          11.2887   40.3629    6.7659 C.3     1  UNL1        0.1117
     20 C          14.9797   42.5077    7.2974 C.ar    1  UNL1        0.1724
     21 C          14.6663   41.4033    8.1090 C.ar    1  UNL1        0.0397
     22 C          13.4663   40.7120    7.9430 C.ar    1  UNL1       -0.0005
     23 C          12.5582   41.1182    6.9652 C.ar    1  UNL1       -0.0099
     24 C          12.8600   42.2090    6.1464 C.ar    1  UNL1        0.0363
     25 C          14.0597   42.9143    6.2974 C.ar    1  UNL1        0.1721
     26 C          17.1825   42.7763    8.4043 C.3     1  UNL1        0.2526
     27 O          16.1867   43.1931    7.4791 O.3     1  UNL1       -0.4684
     28 C          15.1843   45.0619    5.6749 C.3     1  UNL1        0.2526
     29 O          14.2759   43.9973    5.4320 O.3     1  UNL1       -0.4684
@<TRIPOS>BOND
     1    26    27    1
     2    20    27    1
     3    21    22   ar
     4    23    24   ar
     5    19    23    1
     6    19     1    1
     7     1     3   am
     8     6    10   ar
     9     7     6    1
    10     8    10   ar
    11     9     5   ar
    12    14    18    1
    13    14    15    1
    14    15    16    1
    15    16    17    1
    16    17    18    1
    17    25    29    1
    18    25    20   ar
    19    28    29    1
    20     3     5    1
    21    13     8    1
    22    13    18    1
    23    20    21   ar
    24    22    23   ar
    25     1     2    2
    26     5     6   ar
    27     8     9   ar
    28    24    25   ar
    29    13    11    2
    30    13    12    2
    31     3     4    1
@<TRIPOS>MOLECULE
MolPort-007-967-231 ChemDiv-L497-0056 MCULE-7478783920 PubChem-46385455 ZINC000033129565 ZINC33129565
 29 31 0 0 0
SMALL
GASTEIGER

@<TRIPOS>ATOM
      1 C          11.5475   41.3186    8.7151 C.2     1  UNL1        0.2306
      2 O          11.8029   42.4891    9.1048 O.2     1  UNL1       -0.2744
      3 N          10.1962   40.8733    8.5661 N.am    1  UNL1       -0.2835
      4 H          10.0411   40.0723    8.0151 H       1  UNL1        0.1549
      5 C           9.0509   41.5002    9.1551 C.ar    1  UNL1        0.0542
      6 C           8.8205   41.6154   10.5289 C.ar    1  UNL1        0.0223
      7 C           9.6571   41.0628   11.6303 C.3     1  UNL1        0.0395
      8 C           6.9660   42.5024    9.1292 C.ar    1  UNL1        0.1526
      9 C           7.9999   41.9811    8.3644 C.ar    1  UNL1        0.0414
     10 S           7.3209   42.3340   10.7636 S.2     1  UNL1       -0.0703
     11 O           5.5986   43.2743    6.9905 O.2     1  UNL1       -0.1523
     12 O           5.2640   44.5491    9.0521 O.2     1  UNL1       -0.1523
     13 S           5.4789   43.1719    8.4856 S.O2    1  UNL1        0.0690
     14 C           4.6922   40.8645    9.3539 C.3     1  UNL1        0.0959
     15 C           3.9966   40.4947   10.6400 C.3     1  UNL1        0.0206
     16 C           3.6056   41.8172   11.2318 C.3     1  UNL1        0.0206
     17 C           3.4519   42.7358   10.0396 C.3     1  UNL1        0.0959
     18 N           4.1461   42.1394    8.9003 N.3     1  UNL1       -0.1551
     19 C          12.6665   40.3896    8.3923 C.3     1  UNL1        0.1117
     20 C          16.2232   42.6564    7.5452 C.ar    1  UNL1        0.1724
     21 C          15.0154   42.9390    6.8833 C.ar    1  UNL1        0.0397
     22 C          13.8635   42.1996    7.1512 C.ar    1  UNL1       -0.0005
     23 C          13.9032   41.1618    8.0824 C.ar    1  UNL1       -0.0099
     24 C          15.0945   40.8749    8.7532 C.ar    1  UNL1        0.0363
     25 C          16.2602   41.6068    8.4984 C.ar    1  UNL1        0.1721
     26 C          17.7835   43.7217    5.9389 C.3     1  UNL1        0.2526
     27 O          17.3713   43.4055    7.2623 O.3     1  UNL1       -0.4684
     28 C          17.5452   40.0624    9.9911 C.3     1  UNL1        0.2526
     29 O          17.4095   41.2460    9.2176 O.3     1  UNL1       -0.4684
@<TRIPOS>BOND
     1    26    27    1
     2    20    27    1
     3    21    22   ar
     4    23    24   ar
     5    19    23    1
     6    19     1    1
     7     1     3   am
     8     6    10   ar
     9     7     6    1
    10     8    10   ar
    11     9     5   ar
    12    14    18    1
    13    14    15    1
    14    15    16    1
    15    16    17    1
    16    17    18    1
    17    25    29    1
    18    25    20   ar
    19    28    29    1
    20     3     5    1
    21    13     8    1
    22    13    18    1
    23    20    21   ar
    24    22    23   ar
    25     1     2    2
    26     5     6   ar
    27     8     9   ar
    28    24    25   ar
    29    13    11    2
    30    13    12    2
    31     3     4    1
@<TRIPOS>MOLECULE
MolPort-007-967-231 ChemDiv-L497-0056 MCULE-7478783920 PubChem-46385455 ZINC000033129565 ZINC33129565
 29 31 0 0 0
SMALL
GASTEIGER

@<TRIPOS>ATOM
      1 C          11.1156   40.5505    8.7441 C.2     1  UNL1        0.2306
      2 O          10.6073   40.4949    9.8955 O.2     1  UNL1       -0.2744
      3 N          10.3836   41.0998    7.6446 N.am    1  UNL1       -0.2835
      4 H          10.8962   41.3703    6.8488 H       1  UNL1        0.1549
      5 C           8.9640   41.2875    7.6097 C.ar    1  UNL1        0.0542
      6 C           8.0571   40.4165    6.9994 C.ar    1  UNL1        0.0223
      7 C           8.3758   39.1880    6.2201 C.3     1  UNL1        0.0395
      8 C           6.9962   42.4560    7.9483 C.ar    1  UNL1        0.1526
      9 C           8.3722   42.4461    8.1279 C.ar    1  UNL1        0.0414
     10 S           6.5164   41.0736    7.1212 S.2     1  UNL1       -0.0703
     11 O           5.0958   44.1784    7.2694 O.2     1  UNL1       -0.1523
     12 O           6.7467   44.9252    8.9139 O.2     1  UNL1       -0.1523
     13 S           5.9270   43.7528    8.4475 S.O2    1  UNL1        0.0690
     14 C           3.5695   42.9606    9.1624 C.3     1  UNL1        0.0959
     15 C           3.1000   41.6079    9.6360 C.3     1  UNL1        0.0206
     16 C           4.3715   40.8438    9.8632 C.3     1  UNL1        0.0206
     17 C           5.3995   41.9057   10.1863 C.3     1  UNL1        0.0959
     18 N           4.8938   43.1977    9.7276 N.3     1  UNL1       -0.1551
     19 C          12.5017   40.0499    8.5263 C.3     1  UNL1        0.1117
     20 C          14.8281   43.0557    6.5115 C.ar    1  UNL1        0.1724
     21 C          13.5039   42.7895    6.1212 C.ar    1  UNL1        0.0397
     22 C          12.7513   41.8097    6.7683 C.ar    1  UNL1       -0.0005
     23 C          13.3137   41.0768    7.8135 C.ar    1  UNL1       -0.0099
     24 C          14.6257   41.3360    8.2170 C.ar    1  UNL1        0.0363
     25 C          15.3960   42.3162    7.5803 C.ar    1  UNL1        0.1721
     26 C          16.9134   44.3594    6.1931 C.3     1  UNL1        0.2526
     27 O          15.5713   44.0399    5.8494 O.3     1  UNL1       -0.4684
     28 C          17.3591   41.6621    8.9885 C.3     1  UNL1        0.2526
     29 O          16.7038   42.5052    8.0518 O.3     1  UNL1       -0.4684
@<TRIPOS>BOND
     1    26    27    1
     2    20    27    1
     3    21    22   ar
     4    23    24   ar
     5    19    23    1
     6    19     1    1
     7     1     3   am
     8     6    10   ar
     9     7     6    1
    10     8    10   ar
    11     9     5   ar
    12    14    18    1
    13    14    15    1
    14    15    16    1
    15    16    17    1
    16    17    18    1
    17    25    29    1
    18    25    20   ar
    19    28    29    1
    20     3     5    1
    21    13     8    1
    22    13    18    1
    23    20    21   ar
    24    22    23   ar
    25     1     2    2
    26     5     6   ar
    27     8     9   ar
    28    24    25   ar
    29    13    11    2
    30    13    12    2
    31     3     4    1
@<TRIPOS>MOLECULE
MolPort-007-967-231 ChemDiv-L497-0056 MCULE-7478783920 PubChem-46385455 ZINC000033129565 ZINC33129565
 29 31 0 0 0
SMALL
GASTEIGER

@<TRIPOS>ATOM
      1 C          12.2093   39.9453    9.8863 C.2     1  UNL1        0.2306
      2 O          11.5170   38.9132   10.0932 O.2     1  UNL1       -0.2744
      3 N          11.6741   41.2491   10.1316 N.am    1  UNL1       -0.2835
      4 H          12.3137   41.9924   10.2189 H       1  UNL1        0.1549
      5 C          10.2816   41.5589   10.2604 C.ar    1  UNL1        0.0542
      6 C           9.5705   41.5592   11.4637 C.ar    1  UNL1        0.0223
      7 C          10.0812   41.1780   12.8099 C.3     1  UNL1        0.0395
      8 C           8.1592   42.0332    9.4716 C.ar    1  UNL1        0.1526
      9 C           9.4861   41.8064    9.1348 C.ar    1  UNL1        0.0414
     10 S           7.9570   41.8877   11.1339 S.2     1  UNL1       -0.0703
     11 O           5.9685   41.1534    8.2606 O.2     1  UNL1       -0.1523
     12 O           7.4639   42.5905    6.9621 O.2     1  UNL1       -0.1523
     13 S           6.8720   42.3532    8.3249 S.O2    1  UNL1        0.0690
     14 C           5.5273   44.4552    7.6394 C.3     1  UNL1        0.0959
     15 C           4.0605   44.7669    7.8006 C.3     1  UNL1        0.0206
     16 C           3.5575   43.6786    8.7032 C.3     1  UNL1        0.0206
     17 C           4.7654   43.2743    9.5195 C.3     1  UNL1        0.0959
     18 N           5.9679   43.7447    8.8354 N.3     1  UNL1       -0.1551
     19 C          13.6078   39.8067    9.3922 C.3     1  UNL1        0.1117
     20 C          14.3869   42.7912    6.3935 C.ar    1  UNL1        0.1724
     21 C          13.1738   42.0808    6.4031 C.ar    1  UNL1        0.0397
     22 C          12.9232   41.1073    7.3699 C.ar    1  UNL1       -0.0005
     23 C          13.8851   40.8254    8.3400 C.ar    1  UNL1       -0.0099
     24 C          15.0919   41.5290    8.3472 C.ar    1  UNL1        0.0363
     25 C          15.3607   42.5103    7.3858 C.ar    1  UNL1        0.1721
     26 C          14.8792   45.1271    5.7221 C.3     1  UNL1        0.2526
     27 O          14.6245   43.7628    5.4142 O.3     1  UNL1       -0.4684
     28 C          17.6089   42.8694    8.4256 C.3     1  UNL1        0.2526
     29 O          16.5997   43.1631    7.4701 O.3     1  UNL1       -0.4684
@<TRIPOS>BOND
     1    26    27    1
     2    20    27    1
     3    21    22   ar
     4    23    24   ar
     5    19    23    1
     6    19     1    1
     7     1     3   am
     8     6    10   ar
     9     7     6    1
    10     8    10   ar
    11     9     5   ar
    12    14    18    1
    13    14    15    1
    14    15    16    1
    15    16    17    1
    16    17    18    1
    17    25    29    1
    18    25    20   ar
    19    28    29    1
    20     3     5    1
    21    13     8    1
    22    13    18    1
    23    20    21   ar
    24    22    23   ar
    25     1     2    2
    26     5     6   ar
    27     8     9   ar
    28    24    25   ar
    29    13    11    2
    30    13    12    2
    31     3     4    1
@<TRIPOS>MOLECULE
MolPort-007-967-231 ChemDiv-L497-0056 MCULE-7478783920 PubChem-46385455 ZINC000033129565 ZINC33129565
 29 31 0 0 0
SMALL
GASTEIGER

@<TRIPOS>ATOM
      1 C          13.7745   39.4166    9.9934 C.2     1  UNL1        0.2306
      2 O          13.1820   38.3342   10.2476 O.2     1  UNL1       -0.2744
      3 N          13.0373   40.6229    9.7750 N.am    1  UNL1       -0.2835
      4 H          13.5274   41.4734    9.8501 H       1  UNL1        0.1549
      5 C          11.6427   40.6916    9.4558 C.ar    1  UNL1        0.0542
      6 C          11.0522   40.1202    8.3250 C.ar    1  UNL1        0.0223
      7 C          11.7415   39.4059    7.2147 C.3     1  UNL1        0.0395
      8 C           9.4638   41.4191    9.7305 C.ar    1  UNL1        0.1526
      9 C          10.7548   41.4397   10.2388 C.ar    1  UNL1        0.0414
     10 S           9.4226   40.5255    8.3074 S.2     1  UNL1       -0.0703
     11 O           8.0118   43.6373    9.8335 O.2     1  UNL1       -0.1523
     12 O           8.2919   42.3859   11.9175 O.2     1  UNL1       -0.1523
     13 S           8.0945   42.2604   10.4312 S.O2    1  UNL1        0.0690
     14 C           5.8528   41.3251   11.3237 C.3     1  UNL1        0.0959
     15 C           4.4345   41.7138   10.9890 C.3     1  UNL1        0.0206
     16 C           4.5789   42.6149    9.7977 C.3     1  UNL1        0.0206
     17 C           5.8568   42.1578    9.1290 C.3     1  UNL1        0.0959
     18 N           6.6349   41.3831   10.0932 N.3     1  UNL1       -0.1551
     19 C          15.2628   39.4443    9.9321 C.3     1  UNL1        0.1117
     20 C          16.6118   42.8736    7.7126 C.ar    1  UNL1        0.1724
     21 C          17.4643   42.2255    8.6234 C.ar    1  UNL1        0.0397
     22 C          17.0256   41.1184    9.3496 C.ar    1  UNL1       -0.0005
     23 C          15.7245   40.6453    9.1795 C.ar    1  UNL1       -0.0099
     24 C          14.8689   41.2747    8.2722 C.ar    1  UNL1        0.0363
     25 C          15.2918   42.3862    7.5337 C.ar    1  UNL1        0.1721
     26 C          17.5238   43.9057    5.6504 C.3     1  UNL1        0.2526
     27 O          17.0662   43.9857    6.9941 O.3     1  UNL1       -0.4684
     28 C          13.1492   42.3402    6.2408 C.3     1  UNL1        0.2526
     29 O          14.3634   42.9543    6.6485 O.3     1  UNL1       -0.4684
@<TRIPOS>BOND
     1    26    27    1
     2    20    27    1
     3    21    22   ar
     4    23    24   ar
     5    19    23    1
     6    19     1    1
     7     1     3   am
     8     6    10   ar
     9     7     6    1
    10     8    10   ar
    11     9     5   ar
    12    14    18    1
    13    14    15    1
    14    15    16    1
    15    16    17    1
    16    17    18    1
    17    25    29    1
    18    25    20   ar
    19    28    29    1
    20     3     5    1
    21    13     8    1
    22    13    18    1
    23    20    21   ar
    24    22    23   ar
    25     1     2    2
    26     5     6   ar
    27     8     9   ar
    28    24    25   ar
    29    13    11    2
    30    13    12    2
    31     3     4    1
@<TRIPOS>MOLECULE
MolPort-007-967-231 ChemDiv-L497-0056 MCULE-7478783920 PubChem-46385455 ZINC000033129565 ZINC33129565
 29 31 0 0 0
SMALL
GASTEIGER

@<TRIPOS>ATOM
      1 C           7.6275   41.3235   11.6559 C.2     1  UNL1        0.2306
      2 O           8.2928   41.7984   12.6147 O.2     1  UNL1       -0.2744
      3 N           8.2589   41.0008   10.4135 N.am    1  UNL1       -0.2835
      4 H           7.7773   40.3959    9.8040 H       1  UNL1        0.1549
      5 C           9.5361   41.4880    9.9856 C.ar    1  UNL1        0.0542
      6 C           9.8718   42.8378    9.8480 C.ar    1  UNL1        0.0223
      7 C           8.9756   44.0115   10.0419 C.3     1  UNL1        0.0395
      8 C          11.6839   41.2837    9.1505 C.ar    1  UNL1        0.1526
      9 C          10.5474   40.6104    9.5754 C.ar    1  UNL1        0.0414
     10 S          11.4325   42.9435    9.2369 S.2     1  UNL1       -0.0703
     11 O          13.7547   41.3985    7.4958 O.2     1  UNL1       -0.1523
     12 O          12.7854   39.1928    7.9232 O.2     1  UNL1       -0.1523
     13 S          13.1395   40.5160    8.5459 S.O2    1  UNL1        0.0690
     14 C          13.5043   39.8458   11.0186 C.3     1  UNL1        0.0959
     15 C          14.2122   38.6518   11.6085 C.3     1  UNL1        0.0206
     16 C          14.9134   38.0321   10.4353 C.3     1  UNL1        0.0206
     17 C          15.1541   39.1846    9.4852 C.3     1  UNL1        0.0959
     18 N          14.2615   40.2825    9.8501 N.3     1  UNL1       -0.1551
     19 C           6.1668   41.0822   11.8216 C.3     1  UNL1        0.1117
     20 C           3.9562   43.4469    8.9882 C.ar    1  UNL1        0.1724
     21 C           3.3010   42.7958   10.0481 C.ar    1  UNL1        0.0397
     22 C           4.0155   42.0224   10.9628 C.ar    1  UNL1       -0.0005
     23 C           5.3970   41.8838   10.8283 C.ar    1  UNL1       -0.0099
     24 C           6.0622   42.5313    9.7845 C.ar    1  UNL1        0.0363
     25 C           5.3622   43.3127    8.8576 C.ar    1  UNL1        0.1721
     26 C           3.6501   45.4957    7.6252 C.3     1  UNL1        0.2526
     27 O           3.2242   44.2166    8.0766 O.3     1  UNL1       -0.4684
     28 C           6.5842   43.2660    6.6739 C.3     1  UNL1        0.2526
     29 O           6.1133   43.9230    7.8419 O.3     1  UNL1       -0.4684
@<TRIPOS>BOND
     1    26    27    1
     2    20    27    1
     3    21    22   ar
     4    23    24   ar
     5    19    23    1
     6    19     1    1
     7     1     3   am
     8     6    10   ar
     9     7     6    1
    10     8    10   ar
    11     9     5   ar
    12    14    18    1
    13    14    15    1
    14    15    16    1
    15    16    17    1
    16    17    18    1
    17    25    29    1
    18    25    20   ar
    19    28    29    1
    20     3     5    1
    21    13     8    1
    22    13    18    1
    23    20    21   ar
    24    22    23   ar
    25     1     2    2
    26     5     6   ar
    27     8     9   ar
    28    24    25   ar
    29    13    11    2
    30    13    12    2
    31     3     4    1
@<TRIPOS>MOLECULE
MolPort-007-967-231 ChemDiv-L497-0056 MCULE-7478783920 PubChem-46385455 ZINC000033129565 ZINC33129565
 29 31 0 0 0
SMALL
GASTEIGER

@<TRIPOS>ATOM
      1 C          10.8246   42.4680   10.1044 C.2     1  UNL1        0.2306
      2 O          11.5629   42.8151    9.1443 O.2     1  UNL1       -0.2744
      3 N          11.0702   41.2519   10.8165 N.am    1  UNL1       -0.2835
      4 H          10.6557   41.1550   11.7043 H       1  UNL1        0.1549
      5 C          11.8712   40.1641   10.3406 C.ar    1  UNL1        0.0542
      6 C          11.5341   39.3317    9.2695 C.ar    1  UNL1        0.0223
      7 C          10.2764   39.3574    8.4721 C.3     1  UNL1        0.0395
      8 C          13.6472   38.6832   10.4094 C.ar    1  UNL1        0.1526
      9 C          13.0505   39.7898   10.9966 C.ar    1  UNL1        0.0414
     10 S          12.7110   38.1428    9.1222 S.2     1  UNL1       -0.0703
     11 O          14.8922   36.4378   11.0786 O.2     1  UNL1       -0.1523
     12 O          15.4750   38.4564   12.3328 O.2     1  UNL1       -0.1523
     13 S          15.1218   37.9197   10.9723 S.O2    1  UNL1        0.0690
     14 C          17.1570   39.3891   10.3436 C.3     1  UNL1        0.0959
     15 C          18.6245   39.0455   10.2873 C.3     1  UNL1        0.0206
     16 C          18.6509   37.5516   10.4284 C.3     1  UNL1        0.0206
     17 C          17.3191   37.0947    9.8748 C.3     1  UNL1        0.0959
     18 N          16.4086   38.2374    9.8509 N.3     1  UNL1       -0.1551
     19 C           9.6886   43.3413   10.5124 C.3     1  UNL1        0.1117
     20 C           5.9414   41.2581   10.1588 C.ar    1  UNL1        0.1724
     21 C           6.4965   41.5306   11.4214 C.ar    1  UNL1        0.0397
     22 C           7.7152   42.1989   11.5372 C.ar    1  UNL1       -0.0005
     23 C           8.4008   42.6006   10.3908 C.ar    1  UNL1       -0.0099
     24 C           7.8573   42.3434    9.1299 C.ar    1  UNL1        0.0363
     25 C           6.6349   41.6750    8.9938 C.ar    1  UNL1        0.1721
     26 C           3.9464   40.2091   11.1928 C.3     1  UNL1        0.2526
     27 O           4.7190   40.5832   10.0595 O.3     1  UNL1       -0.4684
     28 C           6.6005   40.4082    6.8355 C.3     1  UNL1        0.2526
     29 O           6.1684   41.4586    7.6885 O.3     1  UNL1       -0.4684
@<TRIPOS>BOND
     1    26    27    1
     2    20    27    1
     3    21    22   ar
     4    23    24   ar
     5    19    23    1
     6    19     1    1
     7     1     3   am
     8     6    10   ar
     9     7     6    1
    10     8    10   ar
    11     9     5   ar
    12    14    18    1
    13    14    15    1
    14    15    16    1
    15    16    17    1
    16    17    18    1
    17    25    29    1
    18    25    20   ar
    19    28    29    1
    20     3     5    1
    21    13     8    1
    22    13    18    1
    23    20    21   ar
    24    22    23   ar
    25     1     2    2
    26     5     6   ar
    27     8     9   ar
    28    24    25   ar
    29    13    11    2
    30    13    12    2
    31     3     4    1
@<TRIPOS>MOLECULE
MolPort-007-967-231 ChemDiv-L497-0056 MCULE-7478783920 PubChem-46385455 ZINC000033129565 ZINC33129565
 29 31 0 0 0
SMALL
GASTEIGER

@<TRIPOS>ATOM
      1 C          12.9091   41.1603    7.4368 C.2     1  UNL1        0.2306
      2 O          12.7565   39.9123    7.3570 O.2     1  UNL1       -0.2744
      3 N          14.1135   41.7198    7.9687 N.am    1  UNL1       -0.2835
      4 H          14.3021   42.6647    7.7665 H       1  UNL1        0.1549
      5 C          15.0667   41.0144    8.7721 C.ar    1  UNL1        0.0542
      6 C          16.4316   41.3087    8.8365 C.ar    1  UNL1        0.0223
      7 C          17.1673   42.3386    8.0514 C.3     1  UNL1        0.0395
      8 C          15.7769   39.3171   10.1745 C.ar    1  UNL1        0.1526
      9 C          14.6982   39.8820    9.5090 C.ar    1  UNL1        0.0414
     10 S          17.1791   40.1758    9.8255 S.2     1  UNL1       -0.0703
     11 O          15.0049   38.2184   12.4628 O.2     1  UNL1       -0.1523
     12 O          17.0951   37.4081   11.4820 O.2     1  UNL1       -0.1523
     13 S          15.6995   37.8785   11.1737 S.O2    1  UNL1        0.0690
     14 C          13.7476   36.1801   11.2198 C.3     1  UNL1        0.0959
     15 C          12.4734   36.1406   10.4138 C.3     1  UNL1        0.0206
     16 C          12.6837   37.1831    9.3550 C.3     1  UNL1        0.0206
     17 C          14.1844   37.2398    9.1712 C.3     1  UNL1        0.0959
     18 N          14.8194   36.6354   10.3404 N.3     1  UNL1       -0.1551
     19 C          11.8272   42.0662    6.9591 C.3     1  UNL1        0.1117
     20 C           8.4670   42.0015    9.6445 C.ar    1  UNL1        0.1724
     21 C           9.7057   42.5248   10.0548 C.ar    1  UNL1        0.0397
     22 C          10.7981   42.5391    9.1878 C.ar    1  UNL1       -0.0005
     23 C          10.6698   42.0250    7.8975 C.ar    1  UNL1       -0.0099
     24 C           9.4428   41.5089    7.4737 C.ar    1  UNL1        0.0363
     25 C           8.3350   41.4872    8.3293 C.ar    1  UNL1        0.1721
     26 C           7.4785   41.5306   11.8695 C.3     1  UNL1        0.2526
     27 O           7.3813   41.9912   10.5280 O.3     1  UNL1       -0.4684
     28 C           7.0018   40.3770    6.5253 C.3     1  UNL1        0.2526
     29 O           7.1450   40.9479    7.8181 O.3     1  UNL1       -0.4684
@<TRIPOS>BOND
     1    26    27    1
     2    20    27    1
     3    21    22   ar
     4    23    24   ar
     5    19    23    1
     6    19     1    1
     7     1     3   am
     8     6    10   ar
     9     7     6    1
    10     8    10   ar
    11     9     5   ar
    12    14    18    1
    13    14    15    1
    14    15    16    1
    15    16    17    1
    16    17    18    1
    17    25    29    1
    18    25    20   ar
    19    28    29    1
    20     3     5    1
    21    13     8    1
    22    13    18    1
    23    20    21   ar
    24    22    23   ar
    25     1     2    2
    26     5     6   ar
    27     8     9   ar
    28    24    25   ar
    29    13    11    2
    30    13    12    2
    31     3     4    1
@<TRIPOS>MOLECULE
MolPort-007-967-231 ChemDiv-L497-0056 MCULE-7478783920 PubChem-46385455 ZINC000033129565 ZINC33129565
 29 31 0 0 0
SMALL
GASTEIGER

@<TRIPOS>ATOM
      1 C          12.0635   40.0141    8.0990 C.2     1  UNL1        0.2306
      2 O          12.0707   40.2059    6.8539 O.2     1  UNL1       -0.2744
      3 N          10.8313   39.8961    8.8161 N.am    1  UNL1       -0.2835
      4 H          10.8649   39.4856    9.7103 H       1  UNL1        0.1549
      5 C           9.5525   40.3277    8.3364 C.ar    1  UNL1        0.0542
      6 C           8.7388   39.6001    7.4635 C.ar    1  UNL1        0.0223
      7 C           9.0558   38.2978    6.8140 C.3     1  UNL1        0.0395
      8 C           7.8243   41.8381    8.0467 C.ar    1  UNL1        0.1526
      9 C           9.0496   41.5962    8.6514 C.ar    1  UNL1        0.0414
     10 S           7.3835   40.5222    7.0984 S.2     1  UNL1       -0.0703
     11 O           6.2186   43.6034    6.8870 O.2     1  UNL1       -0.1523
     12 O           7.8439   44.4618    8.5023 O.2     1  UNL1       -0.1523
     13 S           6.9074   43.3252    8.1940 S.O2    1  UNL1        0.0690
     14 C           4.4256   43.5132    8.9026 C.3     1  UNL1        0.0959
     15 C           3.4456   42.4405    9.3071 C.3     1  UNL1        0.0206
     16 C           4.2978   41.2159    9.4696 C.3     1  UNL1        0.0206
     17 C           5.6650   41.7510    9.8347 C.3     1  UNL1        0.0959
     18 N           5.7283   43.1615    9.4579 N.3     1  UNL1       -0.1551
     19 C          13.3544   39.8955    8.8331 C.3     1  UNL1        0.1117
     20 C          16.1442   42.8489    7.4185 C.ar    1  UNL1        0.1724
     21 C          16.4736   42.0050    8.4937 C.ar    1  UNL1        0.0397
     22 C          15.5670   41.0524    8.9584 C.ar    1  UNL1       -0.0005
     23 C          14.3137   40.9327    8.3578 C.ar    1  UNL1       -0.0099
     24 C          13.9759   41.7593    7.2836 C.ar    1  UNL1        0.0363
     25 C          14.8730   42.7202    6.8026 C.ar    1  UNL1        0.1721
     26 C          17.8731   43.6119    5.8128 C.3     1  UNL1        0.2526
     27 O          17.0640   43.8023    6.9663 O.3     1  UNL1       -0.4684
     28 C          14.4210   44.9269    5.7114 C.3     1  UNL1        0.2526
     29 O          14.4463   43.5067    5.7221 O.3     1  UNL1       -0.4684
@<TRIPOS>BOND
     1    26    27    1
     2    20    27    1
     3    21    22   ar
     4    23    24   ar
     5    19    23    1
     6    19     1    1
     7     1     3   am
     8     6    10   ar
     9     7     6    1
    10     8    10   ar
    11     9     5   ar
    12    14    18    1
    13    14    15    1
    14    15    16    1
    15    16    17    1
    16    17    18    1
    17    25    29    1
    18    25    20   ar
    19    28    29    1
    20     3     5    1
    21    13     8    1
    22    13    18    1
    23    20    21   ar
    24    22    23   ar
    25     1     2    2
    26     5     6   ar
    27     8     9   ar
    28    24    25   ar
    29    13    11    2
    30    13    12    2
    31     3     4    1
