@<TRIPOS>MOLECULE
MolPort-001-980-475 871563 MCULE-1054843532 PubChem-1131153 ZINC000000871563
 27 29 0 0 0
SMALL
GASTEIGER

@<TRIPOS>ATOM
      1 C          12.8042   38.4424    8.4605 C.ar    1  UNL1        0.0905
      2 C          11.3528   40.4582    8.8153 C.ar    1  UNL1        0.0809
      3 C          11.1664   39.4594    9.7790 C.ar    1  UNL1       -0.0001
      4 C          10.1725   39.5590   10.8911 C.3     1  UNL1        0.0325
      5 C          11.9667   38.3203    9.5704 C.ar    1  UNL1        0.0847
      6 S          12.5191   39.9202    7.7218 S.2     1  UNL1       -0.0673
      7 C          10.6922   41.7840    8.7773 C.2     1  UNL1        0.2548
      8 C           8.3796   40.8822    8.2916 C.3     1  UNL1        0.0937
      9 C           7.2754   41.2570    9.2762 C.3     1  UNL1        0.0216
     10 C           6.6868   42.6176    8.9056 C.3     1  UNL1        0.0035
     11 C           7.7790   43.6862    8.8920 C.3     1  UNL1        0.0216
     12 C           8.8815   43.2930    7.9120 C.3     1  UNL1        0.0937
     13 N           9.3691   41.9557    8.2401 N.am    1  UNL1       -0.2757
     14 O          11.3167   42.7910    9.2087 O.2     1  UNL1       -0.2694
     15 C          14.8470   36.9316    8.5882 C.2     1  UNL1        0.2499
     16 N          13.6877   37.4501    7.9251 N.am    1  UNL1       -0.2749
     17 O          15.3416   37.5459    9.5725 O.2     1  UNL1       -0.2698
     18 H          13.4819   37.0962    7.0298 H       1  UNL1        0.1557
     19 C          15.4947   35.7076    8.0858 C.ar    1  UNL1        0.0538
     20 C          16.3991   35.7727    7.0157 C.ar    1  UNL1        0.0068
     21 C          17.0124   34.6115    6.5366 C.ar    1  UNL1        0.0298
     22 C          16.7255   33.3763    7.1240 C.ar    1  UNL1        0.1401
     23 C          15.8250   33.3021    8.1901 C.ar    1  UNL1        0.0298
     24 C          15.2118   34.4634    8.6692 C.ar    1  UNL1        0.0068
     25 F          17.3197   32.2513    6.6598 F       1  UNL1       -0.2042
     26 C          11.8422   37.1196   10.3602 C.1     1  UNL1        0.1019
     27 N          11.7438   36.1552   10.9923 N.1     1  UNL1       -0.1908
@<TRIPOS>BOND
     1     1    16    1
     2     1     6   ar
     3    15    19    1
     4    20    21   ar
     5    22    23   ar
     6    22    25    1
     7    24    19   ar
     8     2     6   ar
     9     2     7    1
    10     3     5   ar
    11     4     3    1
    12     5    26    1
    13     7    13   am
    14     8    13    1
    15     8     9    1
    16     9    10    1
    17    10    11    1
    18    11    12    1
    19    12    13    1
    20    16    15   am
    21    15    17    2
    22    19    20   ar
    23    21    22   ar
    24    23    24   ar
    25     2     3   ar
    26     5     1   ar
    27     7    14    2
    28    26    27    3
    29    16    18    1
@<TRIPOS>MOLECULE
MolPort-001-980-475 871563 MCULE-1054843532 PubChem-1131153 ZINC000000871563
 27 29 0 0 0
SMALL
GASTEIGER

@<TRIPOS>ATOM
      1 C          11.4105   41.2730    8.7446 C.ar    1  UNL1        0.0905
      2 C          13.4081   42.1662    7.5166 C.ar    1  UNL1        0.0809
      3 C          13.7218   41.1529    8.4309 C.ar    1  UNL1       -0.0001
      4 C          15.1140   40.6720    8.6863 C.3     1  UNL1        0.0325
      5 C          12.6045   40.6639    9.1338 C.ar    1  UNL1        0.0847
      6 S          11.7440   42.4346    7.5825 S.2     1  UNL1       -0.0673
      7 C          14.3497   42.8547    6.6029 C.2     1  UNL1        0.2548
      8 C          16.0532   43.4053    8.3895 C.3     1  UNL1        0.0937
      9 C          17.4733   42.8931    8.1658 C.3     1  UNL1        0.0216
     10 C          18.2516   43.8790    7.2957 C.3     1  UNL1        0.0035
     11 C          17.5403   44.0893    5.9598 C.3     1  UNL1        0.0216
     12 C          16.1183   44.5906    6.1990 C.3     1  UNL1        0.0937
     13 N          15.4242   43.6724    7.0983 N.am    1  UNL1       -0.2757
     14 O          14.1901   42.7364    5.3577 O.2     1  UNL1       -0.2694
     15 C           9.1609   42.1007    9.5968 C.2     1  UNL1        0.2499
     16 N          10.1073   41.0663    9.3021 N.am    1  UNL1       -0.2749
     17 O           9.5376   43.3024    9.6682 O.2     1  UNL1       -0.2698
     18 H           9.8406   40.1391    9.4984 H       1  UNL1        0.1557
     19 C           7.7555   41.7543    9.8707 C.ar    1  UNL1        0.0538
     20 C           6.8576   41.5487    8.8131 C.ar    1  UNL1        0.0068
     21 C           5.5231   41.2224    9.0719 C.ar    1  UNL1        0.0298
     22 C           5.0768   41.0996   10.3905 C.ar    1  UNL1        0.1401
     23 C           5.9645   41.3035   11.4503 C.ar    1  UNL1        0.0298
     24 C           7.2989   41.6298   11.1915 C.ar    1  UNL1        0.0068
     25 F           3.7839   40.7835   10.6412 F       1  UNL1       -0.2042
     26 C          12.7126   39.7163   10.2160 C.1     1  UNL1        0.1019
     27 N          12.8003   38.9579   11.0857 N.1     1  UNL1       -0.1908
@<TRIPOS>BOND
     1     1    16    1
     2     1     6   ar
     3    15    19    1
     4    20    21   ar
     5    22    23   ar
     6    22    25    1
     7    24    19   ar
     8     2     6   ar
     9     2     7    1
    10     3     5   ar
    11     4     3    1
    12     5    26    1
    13     7    13   am
    14     8    13    1
    15     8     9    1
    16     9    10    1
    17    10    11    1
    18    11    12    1
    19    12    13    1
    20    16    15   am
    21    15    17    2
    22    19    20   ar
    23    21    22   ar
    24    23    24   ar
    25     2     3   ar
    26     5     1   ar
    27     7    14    2
    28    26    27    3
    29    16    18    1
@<TRIPOS>MOLECULE
MolPort-001-980-475 871563 MCULE-1054843532 PubChem-1131153 ZINC000000871563
 27 29 0 0 0
SMALL
GASTEIGER

@<TRIPOS>ATOM
      1 C          12.3503   40.6243    7.9699 C.ar    1  UNL1        0.0905
      2 C           9.8645   40.3087    7.8391 C.ar    1  UNL1        0.0809
      3 C          10.5492   39.1707    8.2834 C.ar    1  UNL1       -0.0001
      4 C           9.8764   37.8767    8.6112 C.3     1  UNL1        0.0325
      5 C          11.9454   39.3406    8.3394 C.ar    1  UNL1        0.0847
      6 S          11.0005   41.5176    7.5329 S.2     1  UNL1       -0.0673
      7 C           8.3966   40.4619    7.7077 C.2     1  UNL1        0.2548
      8 C           8.2065   42.3569    9.3719 C.3     1  UNL1        0.0937
      9 C           7.5768   43.6527    8.8685 C.3     1  UNL1        0.0216
     10 C           6.0550   43.5694    8.9783 C.3     1  UNL1        0.0035
     11 C           5.5271   42.3735    8.1871 C.3     1  UNL1        0.0216
     12 C           6.1734   41.0865    8.6936 C.3     1  UNL1        0.0937
     13 N           7.6271   41.2244    8.6537 N.am    1  UNL1       -0.2757
     14 O           7.8052   39.8900    6.7520 O.2     1  UNL1       -0.2694
     15 C          14.1175   42.1433    6.9493 C.2     1  UNL1        0.2499
     16 N          13.6920   41.1106    7.8466 N.am    1  UNL1       -0.2749
     17 O          13.3838   42.4833    5.9813 O.2     1  UNL1       -0.2698
     18 H          14.3766   40.7025    8.4246 H       1  UNL1        0.1557
     19 C          15.4382   42.7715    7.1257 C.ar    1  UNL1        0.0538
     20 C          16.3266   42.2917    8.0992 C.ar    1  UNL1        0.0068
     21 C          17.5792   42.8887    8.2690 C.ar    1  UNL1        0.0298
     22 C          17.9524   43.9703    7.4667 C.ar    1  UNL1        0.1401
     23 C          17.0731   44.4553    6.4948 C.ar    1  UNL1        0.0298
     24 C          15.8206   43.8583    6.3250 C.ar    1  UNL1        0.0068
     25 F          19.1660   44.5487    7.6312 F       1  UNL1       -0.2042
     26 C          12.8548   38.2618    8.6394 C.1     1  UNL1        0.1019
     27 N          13.5847   37.3959    8.8776 N.1     1  UNL1       -0.1908
@<TRIPOS>BOND
     1     1    16    1
     2     1     6   ar
     3    15    19    1
     4    20    21   ar
     5    22    23   ar
     6    22    25    1
     7    24    19   ar
     8     2     6   ar
     9     2     7    1
    10     3     5   ar
    11     4     3    1
    12     5    26    1
    13     7    13   am
    14     8    13    1
    15     8     9    1
    16     9    10    1
    17    10    11    1
    18    11    12    1
    19    12    13    1
    20    16    15   am
    21    15    17    2
    22    19    20   ar
    23    21    22   ar
    24    23    24   ar
    25     2     3   ar
    26     5     1   ar
    27     7    14    2
    28    26    27    3
    29    16    18    1
@<TRIPOS>MOLECULE
MolPort-001-980-475 871563 MCULE-1054843532 PubChem-1131153 ZINC000000871563
 27 29 0 0 0
SMALL
GASTEIGER

@<TRIPOS>ATOM
      1 C          10.1569   42.2206    9.7843 C.ar    1  UNL1        0.0905
      2 C           7.6570   42.4132    9.6880 C.ar    1  UNL1        0.0809
      3 C           8.1396   42.0332   10.9465 C.ar    1  UNL1       -0.0001
      4 C           7.2561   41.7303   12.1136 C.3     1  UNL1        0.0325
      5 C           9.5407   41.9068   10.9967 C.ar    1  UNL1        0.0847
      6 S           8.9773   42.6003    8.6549 S.2     1  UNL1       -0.0673
      7 C           6.2433   42.6660    9.3230 C.2     1  UNL1        0.2548
      8 C           5.3363   40.5812   10.4312 C.3     1  UNL1        0.0937
      9 C           4.2572   40.7810   11.4918 C.3     1  UNL1        0.0216
     10 C           2.8845   40.8742   10.8271 C.3     1  UNL1        0.0035
     11 C           2.8585   42.0171    9.8132 C.3     1  UNL1        0.0216
     12 C           3.9495   41.8101    8.7656 C.3     1  UNL1        0.0937
     13 N           5.2383   41.6430    9.4326 N.am    1  UNL1       -0.2757
     14 O           5.9188   43.8030    8.8848 O.2     1  UNL1       -0.2694
     15 C          12.0902   41.9476    8.1534 C.2     1  UNL1        0.2499
     16 N          11.5510   42.1283    9.4684 N.am    1  UNL1       -0.2749
     17 O          11.3491   41.5478    7.2143 O.2     1  UNL1       -0.2698
     18 H          12.1898   42.1943   10.2146 H       1  UNL1        0.1557
     19 C          13.5247   42.1771    7.9097 C.ar    1  UNL1        0.0538
     20 C          13.9462   43.2682    7.1358 C.ar    1  UNL1        0.0068
     21 C          15.3072   43.4855    6.9019 C.ar    1  UNL1        0.0298
     22 C          16.2568   42.6128    7.4401 C.ar    1  UNL1        0.1401
     23 C          15.8457   41.5226    8.2117 C.ar    1  UNL1        0.0298
     24 C          14.4847   41.3055    8.4456 C.ar    1  UNL1        0.0068
     25 F          17.5754   42.8233    7.2135 F       1  UNL1       -0.2042
     26 C          10.2408   41.3979   12.1508 C.1     1  UNL1        0.1019
     27 N          10.8011   40.9875   13.0765 N.1     1  UNL1       -0.1908
@<TRIPOS>BOND
     1     1    16    1
     2     1     6   ar
     3    15    19    1
     4    20    21   ar
     5    22    23   ar
     6    22    25    1
     7    24    19   ar
     8     2     6   ar
     9     2     7    1
    10     3     5   ar
    11     4     3    1
    12     5    26    1
    13     7    13   am
    14     8    13    1
    15     8     9    1
    16     9    10    1
    17    10    11    1
    18    11    12    1
    19    12    13    1
    20    16    15   am
    21    15    17    2
    22    19    20   ar
    23    21    22   ar
    24    23    24   ar
    25     2     3   ar
    26     5     1   ar
    27     7    14    2
    28    26    27    3
    29    16    18    1
@<TRIPOS>MOLECULE
MolPort-001-980-475 871563 MCULE-1054843532 PubChem-1131153 ZINC000000871563
 27 29 0 0 0
SMALL
GASTEIGER

@<TRIPOS>ATOM
      1 C          14.3906   37.2819    8.4202 C.ar    1  UNL1        0.0905
      2 C          15.8034   35.4241    7.4993 C.ar    1  UNL1        0.0809
      3 C          14.9752   36.0228    6.5419 C.ar    1  UNL1       -0.0001
      4 C          14.9036   35.5780    5.1166 C.3     1  UNL1        0.0325
      5 C          14.1685   37.0529    7.0614 C.ar    1  UNL1        0.0847
      6 S          15.5336   36.1896    8.9781 S.2     1  UNL1       -0.0673
      7 C          16.7904   34.3445    7.2630 C.2     1  UNL1        0.2548
      8 C          17.4277   35.1111    4.9385 C.3     1  UNL1        0.0937
      9 C          18.9038   35.4126    4.6951 C.3     1  UNL1        0.0216
     10 C          19.6466   34.1256    4.3392 C.3     1  UNL1        0.0035
     11 C          19.4867   33.0913    5.4525 C.3     1  UNL1        0.0216
     12 C          18.0059   32.8079    5.6927 C.3     1  UNL1        0.0937
     13 N          17.3063   34.0640    5.9501 N.am    1  UNL1       -0.2757
     14 O          17.1712   33.6401    8.2372 O.2     1  UNL1       -0.2694
     15 C          13.5679   39.6079    9.0408 C.2     1  UNL1        0.2499
     16 N          13.6947   38.1997    9.2720 N.am    1  UNL1       -0.2749
     17 O          14.3306   40.1862    8.2194 O.2     1  UNL1       -0.2698
     18 H          13.2697   37.8335   10.0809 H       1  UNL1        0.1557
     19 C          12.5813   40.3916    9.8039 C.ar    1  UNL1        0.0538
     20 C          12.2136   41.6760    9.3770 C.ar    1  UNL1        0.0068
     21 C          11.2792   42.4216   10.1018 C.ar    1  UNL1        0.0298
     22 C          10.7059   41.8882   11.2592 C.ar    1  UNL1        0.1401
     23 C          11.0670   40.6095   11.6923 C.ar    1  UNL1        0.0298
     24 C          12.0013   39.8640   10.9674 C.ar    1  UNL1        0.0068
     25 F           9.8007   42.6105   11.9614 F       1  UNL1       -0.2042
     26 C          13.1470   37.7145    6.2871 C.1     1  UNL1        0.1019
     27 N          12.3261   38.2455    5.6679 N.1     1  UNL1       -0.1908
@<TRIPOS>BOND
     1     1    16    1
     2     1     6   ar
     3    15    19    1
     4    20    21   ar
     5    22    23   ar
     6    22    25    1
     7    24    19   ar
     8     2     6   ar
     9     2     7    1
    10     3     5   ar
    11     4     3    1
    12     5    26    1
    13     7    13   am
    14     8    13    1
    15     8     9    1
    16     9    10    1
    17    10    11    1
    18    11    12    1
    19    12    13    1
    20    16    15   am
    21    15    17    2
    22    19    20   ar
    23    21    22   ar
    24    23    24   ar
    25     2     3   ar
    26     5     1   ar
    27     7    14    2
    28    26    27    3
    29    16    18    1
@<TRIPOS>MOLECULE
MolPort-001-980-475 871563 MCULE-1054843532 PubChem-1131153 ZINC000000871563
 27 29 0 0 0
SMALL
GASTEIGER

@<TRIPOS>ATOM
      1 C          12.7003   41.5059    8.2483 C.ar    1  UNL1        0.0905
      2 C          14.8781   40.5406    9.0365 C.ar    1  UNL1        0.0809
      3 C          15.0307   41.6548    8.2019 C.ar    1  UNL1       -0.0001
      4 C          16.3589   42.1982    7.7832 C.3     1  UNL1        0.0325
      5 C          13.8101   42.1859    7.7441 C.ar    1  UNL1        0.0847
      6 S          13.2278   40.2354    9.2067 S.2     1  UNL1       -0.0673
      7 C          15.9612   39.7836    9.7069 C.2     1  UNL1        0.2548
      8 C          15.0829   37.4991    9.0692 C.3     1  UNL1        0.0937
      9 C          16.0301   36.5923    8.2885 C.3     1  UNL1        0.0216
     10 C          16.9406   35.8352    9.2542 C.3     1  UNL1        0.0035
     11 C          17.7292   36.8140   10.1231 C.3     1  UNL1        0.0216
     12 C          16.7700   37.7214   10.8892 C.3     1  UNL1        0.0937
     13 N          15.8590   38.3696    9.9491 N.am    1  UNL1       -0.2757
     14 O          16.9902   40.4015   10.0936 O.2     1  UNL1       -0.2694
     15 C          10.3349   42.2269    8.8459 C.2     1  UNL1        0.2499
     16 N          11.3224   41.7359    7.9314 N.am    1  UNL1       -0.2749
     17 O          10.5523   42.1990   10.0881 O.2     1  UNL1       -0.2698
     18 H          11.0306   41.5409    7.0116 H       1  UNL1        0.1557
     19 C           9.0413   42.7151    8.3378 C.ar    1  UNL1        0.0538
     20 C           8.3331   43.7037    9.0367 C.ar    1  UNL1        0.0068
     21 C           7.1042   44.1659    8.5566 C.ar    1  UNL1        0.0298
     22 C           6.5743   43.6426    7.3741 C.ar    1  UNL1        0.1401
     23 C           7.2728   42.6568    6.6718 C.ar    1  UNL1        0.0298
     24 C           8.5017   42.1946    7.1519 C.ar    1  UNL1        0.0068
     25 F           5.3838   44.0904    6.9091 F       1  UNL1       -0.2042
     26 C          13.7333   43.2471    6.7701 C.1     1  UNL1        0.1019
     27 N          13.6710   44.0969    5.9869 N.1     1  UNL1       -0.1908
@<TRIPOS>BOND
     1     1    16    1
     2     1     6   ar
     3    15    19    1
     4    20    21   ar
     5    22    23   ar
     6    22    25    1
     7    24    19   ar
     8     2     6   ar
     9     2     7    1
    10     3     5   ar
    11     4     3    1
    12     5    26    1
    13     7    13   am
    14     8    13    1
    15     8     9    1
    16     9    10    1
    17    10    11    1
    18    11    12    1
    19    12    13    1
    20    16    15   am
    21    15    17    2
    22    19    20   ar
    23    21    22   ar
    24    23    24   ar
    25     2     3   ar
    26     5     1   ar
    27     7    14    2
    28    26    27    3
    29    16    18    1
@<TRIPOS>MOLECULE
MolPort-001-980-475 871563 MCULE-1054843532 PubChem-1131153 ZINC000000871563
 27 29 0 0 0
SMALL
GASTEIGER

@<TRIPOS>ATOM
      1 C          10.4568   40.7992   10.6935 C.ar    1  UNL1        0.0905
      2 C           8.3224   41.9561   10.0595 C.ar    1  UNL1        0.0809
      3 C           8.6151   42.0345   11.4267 C.ar    1  UNL1       -0.0001
      4 C           7.7273   42.7052   12.4250 C.3     1  UNL1        0.0325
      5 C           9.8027   41.3699   11.7865 C.ar    1  UNL1        0.0847
      6 S           9.5491   41.0728    9.3107 S.2     1  UNL1       -0.0673
      7 C           7.1720   42.5802    9.3648 C.2     1  UNL1        0.2548
      8 C           5.4172   41.1215   10.4556 C.3     1  UNL1        0.0937
      9 C           4.3088   41.8373   11.2226 C.3     1  UNL1        0.0216
     10 C           3.1925   42.2475   10.2632 C.3     1  UNL1        0.0035
     11 C           3.7433   43.1438    9.1549 C.3     1  UNL1        0.0216
     12 C           4.8578   42.4197    8.4039 C.3     1  UNL1        0.0937
     13 N           5.8706   41.9680    9.3546 N.am    1  UNL1       -0.2757
     14 O           7.3458   43.6667    8.7488 O.2     1  UNL1       -0.2694
     15 C          12.9019   40.3676   10.1393 C.2     1  UNL1        0.2499
     16 N          11.6427   39.9959   10.7127 N.am    1  UNL1       -0.2749
     17 O          12.9637   41.3099    9.3031 O.2     1  UNL1       -0.2698
     18 H          11.5880   39.1182   11.1552 H       1  UNL1        0.1557
     19 C          14.1183   39.6124   10.4858 C.ar    1  UNL1        0.0538
     20 C          15.3005   39.7993    9.7546 C.ar    1  UNL1        0.0068
     21 C          16.4548   39.0814   10.0810 C.ar    1  UNL1        0.0298
     22 C          16.4350   38.1709   11.1410 C.ar    1  UNL1        0.1401
     23 C          15.2612   37.9778   11.8743 C.ar    1  UNL1        0.0298
     24 C          14.1071   38.6958   11.5479 C.ar    1  UNL1        0.0068
     25 F          17.5533   37.4753   11.4572 F       1  UNL1       -0.2042
     26 C          10.2262   41.2079   13.1560 C.1     1  UNL1        0.1019
     27 N          10.5646   41.0758   14.2548 N.1     1  UNL1       -0.1908
@<TRIPOS>BOND
     1     1    16    1
     2     1     6   ar
     3    15    19    1
     4    20    21   ar
     5    22    23   ar
     6    22    25    1
     7    24    19   ar
     8     2     6   ar
     9     2     7    1
    10     3     5   ar
    11     4     3    1
    12     5    26    1
    13     7    13   am
    14     8    13    1
    15     8     9    1
    16     9    10    1
    17    10    11    1
    18    11    12    1
    19    12    13    1
    20    16    15   am
    21    15    17    2
    22    19    20   ar
    23    21    22   ar
    24    23    24   ar
    25     2     3   ar
    26     5     1   ar
    27     7    14    2
    28    26    27    3
    29    16    18    1
@<TRIPOS>MOLECULE
MolPort-001-980-475 871563 MCULE-1054843532 PubChem-1131153 ZINC000000871563
 27 29 0 0 0
SMALL
GASTEIGER

@<TRIPOS>ATOM
      1 C          10.2263   40.3750    9.8606 C.ar    1  UNL1        0.0905
      2 C          12.4980   39.4738   10.4292 C.ar    1  UNL1        0.0809
      3 C          11.8740   38.7919    9.3771 C.ar    1  UNL1       -0.0001
      4 C          12.4782   37.6146    8.6817 C.3     1  UNL1        0.0325
      5 C          10.5918   39.2847    9.0696 C.ar    1  UNL1        0.0847
      6 S          11.4549   40.6898   10.9573 S.2     1  UNL1       -0.0673
      7 C          13.8576   39.2227   10.9620 C.2     1  UNL1        0.2548
      8 C          15.0746   40.0537    8.9065 C.3     1  UNL1        0.0937
      9 C          16.0774   41.1855    9.1125 C.3     1  UNL1        0.0216
     10 C          17.4312   40.6126    9.5296 C.3     1  UNL1        0.0035
     11 C          17.2898   39.7823   10.8045 C.3     1  UNL1        0.0216
     12 C          16.2761   38.6615   10.5876 C.3     1  UNL1        0.0937
     13 N          15.0176   39.2301   10.1118 N.am    1  UNL1       -0.2757
     14 O          13.9968   38.9752   12.1907 O.2     1  UNL1       -0.2694
     15 C           8.7348   42.3491    9.2686 C.2     1  UNL1        0.2499
     16 N           8.9718   41.0666    9.8614 N.am    1  UNL1       -0.2749
     17 O           9.7049   43.0976    8.9692 O.2     1  UNL1       -0.2698
     18 H           8.2117   40.6252   10.3048 H       1  UNL1        0.1557
     19 C           7.3540   42.8173    9.0582 C.ar    1  UNL1        0.0538
     20 C           6.2751   42.1135    9.6129 C.ar    1  UNL1        0.0068
     21 C           4.9642   42.5555    9.4118 C.ar    1  UNL1        0.0298
     22 C           4.7227   43.7046    8.6541 C.ar    1  UNL1        0.1401
     23 C           5.7917   44.4116    8.0970 C.ar    1  UNL1        0.0298
     24 C           7.1026   43.9695    8.2982 C.ar    1  UNL1        0.0068
     25 F           3.4527   44.1329    8.4592 F       1  UNL1       -0.2042
     26 C           9.7165   38.6501    8.1146 C.1     1  UNL1        0.1019
     27 N           9.0147   38.1428    7.3469 N.1     1  UNL1       -0.1908
@<TRIPOS>BOND
     1     1    16    1
     2     1     6   ar
     3    15    19    1
     4    20    21   ar
     5    22    23   ar
     6    22    25    1
     7    24    19   ar
     8     2     6   ar
     9     2     7    1
    10     3     5   ar
    11     4     3    1
    12     5    26    1
    13     7    13   am
    14     8    13    1
    15     8     9    1
    16     9    10    1
    17    10    11    1
    18    11    12    1
    19    12    13    1
    20    16    15   am
    21    15    17    2
    22    19    20   ar
    23    21    22   ar
    24    23    24   ar
    25     2     3   ar
    26     5     1   ar
    27     7    14    2
    28    26    27    3
    29    16    18    1
@<TRIPOS>MOLECULE
MolPort-001-980-475 871563 MCULE-1054843532 PubChem-1131153 ZINC000000871563
 27 29 0 0 0
SMALL
GASTEIGER

@<TRIPOS>ATOM
      1 C           9.7486   40.6419    8.4240 C.ar    1  UNL1        0.0905
      2 C           7.4686   41.6890    8.4565 C.ar    1  UNL1        0.0809
      3 C           8.5048   42.5999    8.6966 C.ar    1  UNL1       -0.0001
      4 C           8.2808   44.0494    8.9855 C.3     1  UNL1        0.0325
      5 C           9.7830   42.0103    8.6971 C.ar    1  UNL1        0.0847
      6 S           8.1529   40.1632    8.2348 S.2     1  UNL1       -0.0673
      7 C           6.0236   42.0008    8.3556 C.2     1  UNL1        0.2548
      8 C           5.4099   41.0079   10.5994 C.3     1  UNL1        0.0937
      9 C           4.7176   41.9349   11.5946 C.3     1  UNL1        0.0216
     10 C           3.2126   41.9520   11.3306 C.3     1  UNL1        0.0035
     11 C           2.9270   42.3950    9.8964 C.3     1  UNL1        0.0216
     12 C           3.6343   41.4663    8.9127 C.3     1  UNL1        0.0937
     13 N           5.0569   41.4056    9.2387 N.am    1  UNL1       -0.2757
     14 O           5.6303   42.7933    7.4570 O.2     1  UNL1       -0.2694
     15 C          11.4564   39.1562    9.5850 C.2     1  UNL1        0.2499
     16 N          10.8521   39.7286    8.4189 N.am    1  UNL1       -0.2749
     17 O          11.2479   39.6639   10.7206 O.2     1  UNL1       -0.2698
     18 H          11.2251   39.4739    7.5442 H       1  UNL1        0.1557
     19 C          12.3664   38.0055    9.4510 C.ar    1  UNL1        0.0538
     20 C          13.5378   38.1138    8.6874 C.ar    1  UNL1        0.0068
     21 C          14.4008   37.0217    8.5577 C.ar    1  UNL1        0.0298
     22 C          14.0983   35.8130    9.1904 C.ar    1  UNL1        0.1401
     23 C          12.9329   35.6960    9.9526 C.ar    1  UNL1        0.0298
     24 C          12.0700   36.7881   10.0823 C.ar    1  UNL1        0.0068
     25 F          14.9344   34.7549    9.0647 F       1  UNL1       -0.2042
     26 C          10.9794   42.7328    9.0543 C.1     1  UNL1        0.1019
     27 N          11.9400   43.3121    9.3387 N.1     1  UNL1       -0.1908
@<TRIPOS>BOND
     1     1    16    1
     2     1     6   ar
     3    15    19    1
     4    20    21   ar
     5    22    23   ar
     6    22    25    1
     7    24    19   ar
     8     2     6   ar
     9     2     7    1
    10     3     5   ar
    11     4     3    1
    12     5    26    1
    13     7    13   am
    14     8    13    1
    15     8     9    1
    16     9    10    1
    17    10    11    1
    18    11    12    1
    19    12    13    1
    20    16    15   am
    21    15    17    2
    22    19    20   ar
    23    21    22   ar
    24    23    24   ar
    25     2     3   ar
    26     5     1   ar
    27     7    14    2
    28    26    27    3
    29    16    18    1
@<TRIPOS>MOLECULE
MolPort-001-980-475 871563 MCULE-1054843532 PubChem-1131153 ZINC000000871563
 27 29 0 0 0
SMALL
GASTEIGER

@<TRIPOS>ATOM
      1 C          10.4160   41.8505    7.8096 C.ar    1  UNL1        0.0905
      2 C           7.9350   41.7762    8.1770 C.ar    1  UNL1        0.0809
      3 C           8.3340   41.2354    6.9484 C.ar    1  UNL1       -0.0001
      4 C           7.3779   40.7006    5.9312 C.3     1  UNL1        0.0325
      5 C           9.7239   41.2934    6.7332 C.ar    1  UNL1        0.0847
      6 S           9.3149   42.3089    8.9879 S.2     1  UNL1       -0.0673
      7 C           6.5545   41.8294    8.7127 C.2     1  UNL1        0.2548
      8 C           6.2077   44.2877    8.2294 C.3     1  UNL1        0.0937
      9 C           5.0179   44.6530    7.3463 C.3     1  UNL1        0.0216
     10 C           3.7541   44.7698    8.1972 C.3     1  UNL1        0.0035
     11 C           3.4885   43.4619    8.9413 C.3     1  UNL1        0.0216
     12 C           4.6905   43.1032    9.8114 C.3     1  UNL1        0.0937
     13 N           5.8965   43.0784    8.9877 N.am    1  UNL1       -0.2757
     14 O           5.9498   40.7493    8.9531 O.2     1  UNL1       -0.2694
     15 C          12.7482   42.0162    6.8069 C.2     1  UNL1        0.2499
     16 N          11.8198   42.1231    7.8928 N.am    1  UNL1       -0.2749
     17 O          12.4365   41.3723    5.7681 O.2     1  UNL1       -0.2698
     18 H          12.1751   42.4067    8.7661 H       1  UNL1        0.1557
     19 C          14.0897   42.6132    6.9258 C.ar    1  UNL1        0.0538
     20 C          14.3922   43.8129    6.2652 C.ar    1  UNL1        0.0068
     21 C          15.6656   44.3791    6.3754 C.ar    1  UNL1        0.0298
     22 C          16.6460   43.7492    7.1467 C.ar    1  UNL1        0.1401
     23 C          16.3535   42.5532    7.8076 C.ar    1  UNL1        0.0298
     24 C          15.0801   41.9871    7.6975 C.ar    1  UNL1        0.0068
     25 F          17.8798   44.2977    7.2534 F       1  UNL1       -0.2042
     26 C          10.3399   40.9178    5.4841 C.1     1  UNL1        0.1019
     27 N          10.8337   40.6187    4.4811 N.1     1  UNL1       -0.1908
@<TRIPOS>BOND
     1     1    16    1
     2     1     6   ar
     3    15    19    1
     4    20    21   ar
     5    22    23   ar
     6    22    25    1
     7    24    19   ar
     8     2     6   ar
     9     2     7    1
    10     3     5   ar
    11     4     3    1
    12     5    26    1
    13     7    13   am
    14     8    13    1
    15     8     9    1
    16     9    10    1
    17    10    11    1
    18    11    12    1
    19    12    13    1
    20    16    15   am
    21    15    17    2
    22    19    20   ar
    23    21    22   ar
    24    23    24   ar
    25     2     3   ar
    26     5     1   ar
    27     7    14    2
    28    26    27    3
    29    16    18    1
