@<TRIPOS>MOLECULE
MolPort-007-723-081 6818078 ChemDiv-E157-3308 MCULE-7356027978 PubChem-22517694 ZINC000006818078 ZINC06818078
 20 22 0 0 0
SMALL
GASTEIGER

@<TRIPOS>ATOM
      1 C          15.8018   43.9674    6.0509 C.ar    1  UNL1        0.1643
      2 C          13.7880   43.3905    6.1961 C.ar    1  UNL1        0.2195
      3 C          13.8714   41.4703    7.5848 C.ar    1  UNL1        0.1883
      4 N          15.0651   44.8413    5.3126 N.ar    1  UNL1       -0.1310
      5 N          13.7796   44.4763    5.4041 N.ar    1  UNL1       -0.1202
      6 N          15.1088   42.0018    7.3724 N.ar    1  UNL1       -0.1399
      7 N          14.9864   43.0648    6.5948 N.ar    1  UNL1       -0.1881
      8 S          12.6138   42.3501    6.7799 S.2     1  UNL1       -0.0111
      9 C          14.6851   39.6356    9.1721 C.2     1  UNL1        0.2857
     10 N          13.6839   40.3035    8.3947 N.am    1  UNL1       -0.2567
     11 O          15.8735   40.0540    9.1975 O.2     1  UNL1       -0.2664
     12 H          12.7764   39.9226    8.4196 H       1  UNL1        0.1572
     13 C          14.3155   38.4472    9.9478 C.ar    1  UNL1        0.1988
     14 C          14.1906   38.3915   11.3202 C.ar    1  UNL1        0.0455
     15 C          13.8306   37.0825   11.5892 C.ar    1  UNL1        0.0440
     16 C          13.7610   36.4321   10.3689 C.ar    1  UNL1        0.1798
     17 O          14.0572   37.2807    9.4142 O.2     1  UNL1       -0.4458
     18 C          17.2834   43.9994    6.2064 C.3     1  UNL1        0.0677
     19 C          17.6186   43.9841    8.6569 C.3     1  UNL1        0.0005
     20 C          17.6994   43.1539    7.3936 C.3     1  UNL1        0.0080
@<TRIPOS>BOND
     1    19    20    1
     2    20    18    1
     3    18     1    1
     4     2     8   ar
     5     3     8   ar
     6     3    10    1
     7     9    13    1
     8    13    17   ar
     9    14    15   ar
    10    16    17   ar
    11     4     5   ar
    12    10     9   am
    13     7     6   ar
    14     7     1   ar
    15     7     2   ar
    16     1     4   ar
    17     2     5   ar
    18     3     6   ar
    19     9    11    2
    20    13    14   ar
    21    15    16   ar
    22    10    12    1
@<TRIPOS>MOLECULE
MolPort-007-723-081 6818078 ChemDiv-E157-3308 MCULE-7356027978 PubChem-22517694 ZINC000006818078 ZINC06818078
 20 22 0 0 0
SMALL
GASTEIGER

@<TRIPOS>ATOM
      1 C           9.8693   38.3489    7.7771 C.ar    1  UNL1        0.1643
      2 C           9.7796   39.3036    5.9090 C.ar    1  UNL1        0.2195
      3 C          11.4689   40.9604    6.0636 C.ar    1  UNL1        0.1883
      4 N           8.8831   37.7532    7.0531 N.ar    1  UNL1       -0.1310
      5 N           8.8242   38.3596    5.8603 N.ar    1  UNL1       -0.1202
      6 N          11.3743   40.2188    7.2037 N.ar    1  UNL1       -0.1399
      7 N          10.4181   39.3185    7.0462 N.ar    1  UNL1       -0.1881
      8 S          10.3320   40.4754    4.8489 S.2     1  UNL1       -0.0111
      9 C          13.6230   42.1860    6.7005 C.2     1  UNL1        0.2857
     10 N          12.4236   42.0208    5.9344 N.am    1  UNL1       -0.2567
     11 O          13.9397   41.3591    7.5971 O.2     1  UNL1       -0.2664
     12 H          12.2368   42.7042    5.2508 H       1  UNL1        0.1572
     13 C          14.4913   43.3371    6.4330 C.ar    1  UNL1        0.1988
     14 C          15.8367   43.4132    6.7274 C.ar    1  UNL1        0.0455
     15 C          16.2214   44.6714    6.2981 C.ar    1  UNL1        0.0440
     16 C          15.0905   45.2741    5.7740 C.ar    1  UNL1        0.1798
     17 O          14.0791   44.4456    5.8730 O.2     1  UNL1       -0.4458
     18 C          10.2569   37.9914    9.1708 C.3     1  UNL1        0.0677
     19 C          11.9794   36.6044   10.2782 C.3     1  UNL1        0.0005
     20 C          11.7372   37.6717    9.2324 C.3     1  UNL1        0.0080
@<TRIPOS>BOND
     1    19    20    1
     2    20    18    1
     3    18     1    1
     4     2     8   ar
     5     3     8   ar
     6     3    10    1
     7     9    13    1
     8    13    17   ar
     9    14    15   ar
    10    16    17   ar
    11     4     5   ar
    12    10     9   am
    13     7     6   ar
    14     7     1   ar
    15     7     2   ar
    16     1     4   ar
    17     2     5   ar
    18     3     6   ar
    19     9    11    2
    20    13    14   ar
    21    15    16   ar
    22    10    12    1
@<TRIPOS>MOLECULE
MolPort-007-723-081 6818078 ChemDiv-E157-3308 MCULE-7356027978 PubChem-22517694 ZINC000006818078 ZINC06818078
 20 22 0 0 0
SMALL
GASTEIGER

@<TRIPOS>ATOM
      1 C           8.8984   41.2240    7.1951 C.ar    1  UNL1        0.1643
      2 C           9.9027   42.2199    8.7471 C.ar    1  UNL1        0.2195
      3 C          12.1322   42.3575    7.9516 C.ar    1  UNL1        0.1883
      4 N           7.9935   41.4792    8.1787 N.ar    1  UNL1       -0.1310
      5 N           8.6313   42.1155    9.1700 N.ar    1  UNL1       -0.1202
      6 N          11.3098   41.7320    7.0622 N.ar    1  UNL1       -0.1399
      7 N          10.0885   41.6925    7.5688 N.ar    1  UNL1       -0.1881
      8 S          11.3086   42.8611    9.3908 S.2     1  UNL1       -0.0111
      9 C          14.0866   43.4079    6.6770 C.2     1  UNL1        0.2857
     10 N          13.5253   42.5510    7.6787 N.am    1  UNL1       -0.2567
     11 O          13.3476   44.0919    5.9194 O.2     1  UNL1       -0.2664
     12 H          14.1603   42.0446    8.2351 H       1  UNL1        0.1572
     13 C          15.5442   43.4859    6.5356 C.ar    1  UNL1        0.1988
     14 C          16.4654   42.9813    7.4295 C.ar    1  UNL1        0.0455
     15 C          17.6972   43.2899    6.8791 C.ar    1  UNL1        0.0440
     16 C          17.4448   43.9584    5.6932 C.ar    1  UNL1        0.1798
     17 O          16.1482   44.0552    5.5240 O.2     1  UNL1       -0.4458
     18 C           8.6110   40.5137    5.9170 C.3     1  UNL1        0.0677
     19 C           8.9807   38.3042    6.9652 C.3     1  UNL1        0.0005
     20 C           7.9918   39.1602    6.2030 C.3     1  UNL1        0.0080
@<TRIPOS>BOND
     1    19    20    1
     2    20    18    1
     3    18     1    1
     4     2     8   ar
     5     3     8   ar
     6     3    10    1
     7     9    13    1
     8    13    17   ar
     9    14    15   ar
    10    16    17   ar
    11     4     5   ar
    12    10     9   am
    13     7     6   ar
    14     7     1   ar
    15     7     2   ar
    16     1     4   ar
    17     2     5   ar
    18     3     6   ar
    19     9    11    2
    20    13    14   ar
    21    15    16   ar
    22    10    12    1
@<TRIPOS>MOLECULE
MolPort-007-723-081 6818078 ChemDiv-E157-3308 MCULE-7356027978 PubChem-22517694 ZINC000006818078 ZINC06818078
 20 22 0 0 0
SMALL
GASTEIGER

@<TRIPOS>ATOM
      1 C           9.8121   40.2834    4.7749 C.ar    1  UNL1        0.1643
      2 C           9.9889   41.1794    6.6657 C.ar    1  UNL1        0.2195
      3 C          12.3210   41.5542    6.8738 C.ar    1  UNL1        0.1883
      4 N           8.5647   40.3709    5.3113 N.ar    1  UNL1       -0.1310
      5 N           8.6742   40.9431    6.5174 N.ar    1  UNL1       -0.1202
      6 N          12.0013   40.9692    5.6845 N.ar    1  UNL1       -0.1399
      7 N          10.6914   40.7921    5.6373 N.ar    1  UNL1       -0.1881
      8 S          10.9362   41.8463    7.8740 S.2     1  UNL1       -0.0111
      9 C          14.3701   43.0866    6.9060 C.2     1  UNL1        0.2857
     10 N          13.6758   41.8718    7.2145 N.am    1  UNL1       -0.2567
     11 O          13.8015   44.0166    6.2736 O.2     1  UNL1       -0.2664
     12 H          14.1802   41.1869    7.7101 H       1  UNL1        0.1572
     13 C          15.7635   43.2445    7.3350 C.ar    1  UNL1        0.1988
     14 C          16.4842   42.3297    8.0740 C.ar    1  UNL1        0.0455
     15 C          17.7319   42.9076    8.2316 C.ar    1  UNL1        0.0440
     16 C          17.6874   44.1293    7.5816 C.ar    1  UNL1        0.1798
     17 O          16.4959   44.2932    7.0596 O.2     1  UNL1       -0.4458
     18 C          10.1448   39.6921    3.4482 C.3     1  UNL1        0.0677
     19 C           9.9546   37.2266    3.4008 C.3     1  UNL1        0.0005
     20 C           9.2211   38.5274    3.1523 C.3     1  UNL1        0.0080
@<TRIPOS>BOND
     1    19    20    1
     2    20    18    1
     3    18     1    1
     4     2     8   ar
     5     3     8   ar
     6     3    10    1
     7     9    13    1
     8    13    17   ar
     9    14    15   ar
    10    16    17   ar
    11     4     5   ar
    12    10     9   am
    13     7     6   ar
    14     7     1   ar
    15     7     2   ar
    16     1     4   ar
    17     2     5   ar
    18     3     6   ar
    19     9    11    2
    20    13    14   ar
    21    15    16   ar
    22    10    12    1
@<TRIPOS>MOLECULE
MolPort-007-723-081 6818078 ChemDiv-E157-3308 MCULE-7356027978 PubChem-22517694 ZINC000006818078 ZINC06818078
 20 22 0 0 0
SMALL
GASTEIGER

@<TRIPOS>ATOM
      1 C           4.0253   42.9207    9.2033 C.ar    1  UNL1        0.1643
      2 C           5.6853   44.0534    8.5950 C.ar    1  UNL1        0.2195
      3 C           7.5171   42.6141    9.0372 C.ar    1  UNL1        0.1883
      4 N           3.5674   44.1215    8.7560 N.ar    1  UNL1       -0.1310
      5 N           4.6244   44.8460    8.3664 N.ar    1  UNL1       -0.1202
      6 N           6.3253   42.0421    9.3706 N.ar    1  UNL1       -0.1399
      7 N           5.3533   42.8965    9.0973 N.ar    1  UNL1       -0.1881
      8 S           7.3396   44.2139    8.3949 S.2     1  UNL1       -0.0111
      9 C           9.8930   42.3914    9.9610 C.2     1  UNL1        0.2857
     10 N           8.7590   41.9237    9.2206 N.am    1  UNL1       -0.2567
     11 O           9.8751   43.5122   10.5367 O.2     1  UNL1       -0.2664
     12 H           8.8414   41.0396    8.7954 H       1  UNL1        0.1572
     13 C          11.0901   41.5487   10.0465 C.ar    1  UNL1        0.1988
     14 C          11.2853   40.5206   10.9450 C.ar    1  UNL1        0.0455
     15 C          12.5430   40.0255   10.6472 C.ar    1  UNL1        0.0440
     16 C          13.0268   40.7814    9.5930 C.ar    1  UNL1        0.1798
     17 O          12.1303   41.6797    9.2636 O.2     1  UNL1       -0.4458
     18 C           3.1808   41.8198    9.7468 C.3     1  UNL1        0.0677
     19 C           4.0307   40.3223   11.5222 C.3     1  UNL1        0.0005
     20 C           3.4129   41.6747   11.2375 C.3     1  UNL1        0.0080
@<TRIPOS>BOND
     1    19    20    1
     2    20    18    1
     3    18     1    1
     4     2     8   ar
     5     3     8   ar
     6     3    10    1
     7     9    13    1
     8    13    17   ar
     9    14    15   ar
    10    16    17   ar
    11     4     5   ar
    12    10     9   am
    13     7     6   ar
    14     7     1   ar
    15     7     2   ar
    16     1     4   ar
    17     2     5   ar
    18     3     6   ar
    19     9    11    2
    20    13    14   ar
    21    15    16   ar
    22    10    12    1
@<TRIPOS>MOLECULE
MolPort-007-723-081 6818078 ChemDiv-E157-3308 MCULE-7356027978 PubChem-22517694 ZINC000006818078 ZINC06818078
 20 22 0 0 0
SMALL
GASTEIGER

@<TRIPOS>ATOM
      1 C          13.0034   36.8900    9.7320 C.ar    1  UNL1        0.1643
      2 C          11.7020   38.4594    9.2297 C.ar    1  UNL1        0.2195
      3 C          13.1719   40.1759    8.5117 C.ar    1  UNL1        0.1883
      4 N          11.7322   36.4685    9.9726 N.ar    1  UNL1       -0.1310
      5 N          10.8995   37.4675    9.6521 N.ar    1  UNL1       -0.1202
      6 N          13.8441   39.0498    8.8840 N.ar    1  UNL1       -0.1399
      7 N          12.9657   38.1391    9.2696 N.ar    1  UNL1       -0.1881
      8 S          11.4537   40.0190    8.6747 S.2     1  UNL1       -0.0111
      9 C          13.5835   42.0708    6.8420 C.2     1  UNL1        0.2857
     10 N          13.8607   41.3417    8.0439 N.am    1  UNL1       -0.2567
     11 O          12.6579   41.7138    6.0650 O.2     1  UNL1       -0.2664
     12 H          14.5983   41.6753    8.6042 H       1  UNL1        0.1572
     13 C          14.3928   43.2495    6.5160 C.ar    1  UNL1        0.1988
     14 C          15.7297   43.4124    6.8138 C.ar    1  UNL1        0.0455
     15 C          16.0520   44.6636    6.3175 C.ar    1  UNL1        0.0440
     16 C          14.8958   45.1761    5.7541 C.ar    1  UNL1        0.1798
     17 O          13.9283   44.3021    5.8929 O.2     1  UNL1       -0.4458
     18 C          14.2397   36.0929    9.9701 C.3     1  UNL1        0.0677
     19 C          15.5593   34.5977    8.5072 C.3     1  UNL1        0.0005
     20 C          14.2050   34.8218    9.1454 C.3     1  UNL1        0.0080
@<TRIPOS>BOND
     1    19    20    1
     2    20    18    1
     3    18     1    1
     4     2     8   ar
     5     3     8   ar
     6     3    10    1
     7     9    13    1
     8    13    17   ar
     9    14    15   ar
    10    16    17   ar
    11     4     5   ar
    12    10     9   am
    13     7     6   ar
    14     7     1   ar
    15     7     2   ar
    16     1     4   ar
    17     2     5   ar
    18     3     6   ar
    19     9    11    2
    20    13    14   ar
    21    15    16   ar
    22    10    12    1
@<TRIPOS>MOLECULE
MolPort-007-723-081 6818078 ChemDiv-E157-3308 MCULE-7356027978 PubChem-22517694 ZINC000006818078 ZINC06818078
 20 22 0 0 0
SMALL
GASTEIGER

@<TRIPOS>ATOM
      1 C          13.7650   35.7397    9.5323 C.ar    1  UNL1        0.1643
      2 C          12.6487   37.4363   10.0656 C.ar    1  UNL1        0.2195
      3 C          13.8965   39.2235    9.1320 C.ar    1  UNL1        0.1883
      4 N          12.6870   35.3193   10.2483 N.ar    1  UNL1       -0.1310
      5 N          11.9724   36.3997   10.5892 N.ar    1  UNL1       -0.1202
      6 N          14.4727   38.0132    8.8836 N.ar    1  UNL1       -0.1399
      7 N          13.7261   37.0676    9.4297 N.ar    1  UNL1       -0.1881
      8 S          12.4334   39.0963   10.0521 S.2     1  UNL1       -0.0111
      9 C          15.8228   40.8906    8.8906 C.2     1  UNL1        0.2857
     10 N          14.4806   40.4442    8.6618 N.am    1  UNL1       -0.2567
     11 O          16.6315   40.1974    9.5640 O.2     1  UNL1       -0.2664
     12 H          13.9020   41.0355    8.1280 H       1  UNL1        0.1572
     13 C          16.2562   42.1747    8.3304 C.ar    1  UNL1        0.1988
     14 C          17.3928   42.8663    8.6943 C.ar    1  UNL1        0.0455
     15 C          17.3811   44.0040    7.9062 C.ar    1  UNL1        0.0440
     16 C          16.2442   43.9294    7.1197 C.ar    1  UNL1        0.1798
     17 O          15.5998   42.8231    7.4027 O.2     1  UNL1       -0.4458
     18 C          14.8302   34.8599    8.9738 C.3     1  UNL1        0.0677
     19 C          15.4460   32.5332    8.4041 C.3     1  UNL1        0.0005
     20 C          14.3174   33.4392    8.8481 C.3     1  UNL1        0.0080
@<TRIPOS>BOND
     1    19    20    1
     2    20    18    1
     3    18     1    1
     4     2     8   ar
     5     3     8   ar
     6     3    10    1
     7     9    13    1
     8    13    17   ar
     9    14    15   ar
    10    16    17   ar
    11     4     5   ar
    12    10     9   am
    13     7     6   ar
    14     7     1   ar
    15     7     2   ar
    16     1     4   ar
    17     2     5   ar
    18     3     6   ar
    19     9    11    2
    20    13    14   ar
    21    15    16   ar
    22    10    12    1
@<TRIPOS>MOLECULE
MolPort-007-723-081 6818078 ChemDiv-E157-3308 MCULE-7356027978 PubChem-22517694 ZINC000006818078 ZINC06818078
 20 22 0 0 0
SMALL
GASTEIGER

@<TRIPOS>ATOM
      1 C           7.2050   40.5901    6.7088 C.ar    1  UNL1        0.1643
      2 C           8.7535   39.9160    5.4612 C.ar    1  UNL1        0.2195
      3 C          10.4376   41.5604    5.7480 C.ar    1  UNL1        0.1883
      4 N           6.7868   39.4411    6.1117 N.ar    1  UNL1       -0.1310
      5 N           7.7733   39.0082    5.3157 N.ar    1  UNL1       -0.1202
      6 N           9.3295   41.8275    6.4961 N.ar    1  UNL1       -0.1399
      7 N           8.4372   40.8735    6.2884 N.ar    1  UNL1       -0.1881
      8 S          10.2855   40.1083    4.8145 S.2     1  UNL1       -0.0111
      9 C          12.8254   42.1764    6.4312 C.2     1  UNL1        0.2857
     10 N          11.5812   42.4232    5.7650 N.am    1  UNL1       -0.2567
     11 O          13.0104   41.1180    7.0898 O.2     1  UNL1       -0.2664
     12 H          11.5045   43.2704    5.2694 H       1  UNL1        0.1572
     13 C          13.8963   43.1743    6.3421 C.ar    1  UNL1        0.1988
     14 C          15.1371   43.0752    6.9362 C.ar    1  UNL1        0.0455
     15 C          15.7951   44.2383    6.5758 C.ar    1  UNL1        0.0440
     16 C          14.9153   44.9639    5.7906 C.ar    1  UNL1        0.1798
     17 O          13.7935   44.2951    5.6748 O.2     1  UNL1       -0.4458
     18 C           6.4053   41.4121    7.6604 C.3     1  UNL1        0.0677
     19 C           5.8560   41.3732   10.0716 C.3     1  UNL1        0.0005
     20 C           6.9780   41.2922    9.0586 C.3     1  UNL1        0.0080
@<TRIPOS>BOND
     1    19    20    1
     2    20    18    1
     3    18     1    1
     4     2     8   ar
     5     3     8   ar
     6     3    10    1
     7     9    13    1
     8    13    17   ar
     9    14    15   ar
    10    16    17   ar
    11     4     5   ar
    12    10     9   am
    13     7     6   ar
    14     7     1   ar
    15     7     2   ar
    16     1     4   ar
    17     2     5   ar
    18     3     6   ar
    19     9    11    2
    20    13    14   ar
    21    15    16   ar
    22    10    12    1
@<TRIPOS>MOLECULE
MolPort-007-723-081 6818078 ChemDiv-E157-3308 MCULE-7356027978 PubChem-22517694 ZINC000006818078 ZINC06818078
 20 22 0 0 0
SMALL
GASTEIGER

@<TRIPOS>ATOM
      1 C           9.5498   39.7589    6.9658 C.ar    1  UNL1        0.1643
      2 C          11.2211   39.1436    8.0781 C.ar    1  UNL1        0.2195
      3 C          12.8292   40.8243    7.6179 C.ar    1  UNL1        0.1883
      4 N           9.2240   38.5987    7.5975 N.ar    1  UNL1       -0.1310
      5 N          10.2882   38.2041    8.3088 N.ar    1  UNL1       -0.1202
      6 N          11.6499   41.0551    6.9740 N.ar    1  UNL1       -0.1399
      7 N          10.8042   40.0839    7.2761 N.ar    1  UNL1       -0.1881
      8 S          12.8025   39.3790    8.5738 S.2     1  UNL1       -0.0111
      9 C          15.2417   41.5478    8.0699 C.2     1  UNL1        0.2857
     10 N          13.9449   41.7128    7.4833 N.am    1  UNL1       -0.2567
     11 O          15.5060   40.5481    8.7901 O.2     1  UNL1       -0.2664
     12 H          13.8068   42.5172    6.9328 H       1  UNL1        0.1572
     13 C          16.2731   42.5612    7.8252 C.ar    1  UNL1        0.1988
     14 C          17.2693   42.9219    8.7083 C.ar    1  UNL1        0.0455
     15 C          17.9901   43.9009    8.0467 C.ar    1  UNL1        0.0440
     16 C          17.3875   44.0699    6.8117 C.ar    1  UNL1        0.1798
     17 O          16.3667   43.2524    6.7181 O.2     1  UNL1       -0.4458
     18 C           8.6570   40.5291    6.0546 C.3     1  UNL1        0.0677
     19 C           6.3363   39.6827    6.1763 C.3     1  UNL1        0.0005
     20 C           7.3002   40.7255    6.7008 C.3     1  UNL1        0.0080
@<TRIPOS>BOND
     1    19    20    1
     2    20    18    1
     3    18     1    1
     4     2     8   ar
     5     3     8   ar
     6     3    10    1
     7     9    13    1
     8    13    17   ar
     9    14    15   ar
    10    16    17   ar
    11     4     5   ar
    12    10     9   am
    13     7     6   ar
    14     7     1   ar
    15     7     2   ar
    16     1     4   ar
    17     2     5   ar
    18     3     6   ar
    19     9    11    2
    20    13    14   ar
    21    15    16   ar
    22    10    12    1
@<TRIPOS>MOLECULE
MolPort-007-723-081 6818078 ChemDiv-E157-3308 MCULE-7356027978 PubChem-22517694 ZINC000006818078 ZINC06818078
 20 22 0 0 0
SMALL
GASTEIGER

@<TRIPOS>ATOM
      1 C           8.1246   41.6428    6.7192 C.ar    1  UNL1        0.1643
      2 C           9.6148   40.6452    5.6269 C.ar    1  UNL1        0.2195
      3 C          11.6180   41.3095    6.7080 C.ar    1  UNL1        0.1883
      4 N           7.5122   40.9358    5.7310 N.ar    1  UNL1       -0.1310
      5 N           8.4605   40.2975    5.0329 N.ar    1  UNL1       -0.1202
      6 N          10.5158   41.8641    7.2881 N.ar    1  UNL1       -0.1399
      7 N           9.4407   41.4510    6.6376 N.ar    1  UNL1       -0.1881
      8 S          11.2292   40.2917    5.3603 S.2     1  UNL1       -0.0111
      9 C          13.8775   42.5093    6.6537 C.2     1  UNL1        0.2857
     10 N          12.9380   41.5742    7.1978 N.am    1  UNL1       -0.2567
     11 O          13.5895   43.2057    5.6437 O.2     1  UNL1       -0.2664
     12 H          13.2287   41.0625    7.9870 H       1  UNL1        0.1572
     13 C          15.1927   42.6538    7.2860 C.ar    1  UNL1        0.1988
     14 C          16.0124   43.7590    7.1900 C.ar    1  UNL1        0.0455
     15 C          17.1290   43.4368    7.9416 C.ar    1  UNL1        0.0440
     16 C          16.9157   42.1637    8.4421 C.ar    1  UNL1        0.1798
     17 O          15.7491   41.7310    8.0283 O.2     1  UNL1       -0.4458
     18 C           7.4373   42.5107    7.7165 C.3     1  UNL1        0.0677
     19 C           5.8744   44.4033    8.0210 C.3     1  UNL1        0.0005
     20 C           6.4653   43.4384    7.0153 C.3     1  UNL1        0.0080
@<TRIPOS>BOND
     1    19    20    1
     2    20    18    1
     3    18     1    1
     4     2     8   ar
     5     3     8   ar
     6     3    10    1
     7     9    13    1
     8    13    17   ar
     9    14    15   ar
    10    16    17   ar
    11     4     5   ar
    12    10     9   am
    13     7     6   ar
    14     7     1   ar
    15     7     2   ar
    16     1     4   ar
    17     2     5   ar
    18     3     6   ar
    19     9    11    2
    20    13    14   ar
    21    15    16   ar
    22    10    12    1
