@<TRIPOS>MOLECULE
MolPort-051-779-407 MCULE-4415854814 PubChem-165756065
 32 35 0 0 0
SMALL
GASTEIGER

@<TRIPOS>ATOM
      1 C          11.1264   42.9375    9.2213 C.2     1  UNL1        0.4065
      2 O          10.9178   43.5827   10.2850 O.2     1  UNL1       -0.2261
      3 N          10.0341   42.4369    8.4435 N.am    1  UNL1       -0.2338
      4 H          10.2531   41.9946    7.5917 H       1  UNL1        0.1597
      5 C           6.8376   42.2708    9.8657 C.ar    1  UNL1        0.2224
      6 C           8.6496   42.5248    8.7989 C.ar    1  UNL1        0.1559
      7 C           7.6712   43.2119    8.1046 C.ar    1  UNL1        0.1122
      8 C           5.2419   43.5914    8.4226 C.3     1  UNL1        0.1322
      9 N           8.1431   41.9357    9.8999 N.ar    1  UNL1       -0.2058
     10 N           6.5331   43.0373    8.7949 N.ar    1  UNL1       -0.3020
     11 C           5.8844   41.8324   10.8995 C.2     1  UNL1        0.3758
     12 O           6.2556   41.0595   11.8242 O.2     1  UNL1       -0.2415
     13 O           4.5589   42.2875   10.8390 O.3     1  UNL1       -0.4506
     14 C           2.3213   42.0813   11.7543 C.3     1  UNL1        0.0437
     15 C           3.4063   41.4442   10.9036 C.3     1  UNL1        0.1367
     16 C           3.7688   40.0812   11.4677 C.3     1  UNL1        0.0437
     17 C           2.8662   41.2542    9.5022 C.3     1  UNL1        0.0437
     18 O          12.4301   42.7073    8.7800 O.3     1  UNL1       -0.4337
     19 C          12.7820   42.7100    7.3986 C.3     1  UNL1        0.2187
     20 C          13.9964   41.8160    7.1204 C.3     1  UNL1        0.0884
     21 C          15.2940   42.5600    7.2900 C.ar    1  UNL1       -0.0148
     22 C          15.7598   43.6481    6.5496 C.ar    1  UNL1       -0.0038
     23 C          17.0146   44.1895    6.8743 C.ar    1  UNL1       -0.0003
     24 C          17.7838   43.6373    7.9172 C.ar    1  UNL1       -0.0000
     25 C          17.3099   42.5338    8.6443 C.ar    1  UNL1       -0.0003
     26 C          16.0610   42.0161    8.3047 C.ar    1  UNL1       -0.0038
     27 C          15.3490   40.8875    8.8569 C.ar    1  UNL1       -0.0038
     28 C          15.7178   40.0156    9.8800 C.ar    1  UNL1       -0.0003
     29 C          14.8320   38.9778   10.2101 C.ar    1  UNL1       -0.0000
     30 C          13.6134   38.8311    9.5185 C.ar    1  UNL1       -0.0003
     31 C          13.2653   39.7218    8.4894 C.ar    1  UNL1       -0.0038
     32 C          14.1528   40.7523    8.1751 C.ar    1  UNL1       -0.0148
@<TRIPOS>BOND
     1    14    15    1
     2    15    16    1
     3    15    17    1
     4    15    13    1
     5    11    13    1
     6    11     5    1
     7     6     9   ar
     8     6     3    1
     9     7    10   ar
    10     8    10    1
    11     1    18    1
    12    19    18    1
    13    19    20    1
    14    20    21    1
    15    20    32    1
    16    22    23   ar
    17    24    25   ar
    18    26    27    1
    19    26    21   ar
    20    28    29   ar
    21    30    31   ar
    22    32    27   ar
    23    10     5   ar
    24     3     1   am
    25    11    12    2
    26     5     9   ar
    27     6     7   ar
    28     1     2    2
    29    21    22   ar
    30    23    24   ar
    31    25    26   ar
    32    27    28   ar
    33    29    30   ar
    34    31    32   ar
    35     3     4    1
@<TRIPOS>MOLECULE
MolPort-051-779-407 MCULE-4415854814 PubChem-165756065
 32 35 0 0 0
SMALL
GASTEIGER

@<TRIPOS>ATOM
      1 C          10.5696   42.4277    9.8989 C.2     1  UNL1        0.4065
      2 O          11.2891   43.4615    9.8304 O.2     1  UNL1       -0.2261
      3 N          11.1624   41.1254    9.9374 N.am    1  UNL1       -0.2338
      4 H          10.5566   40.3580   10.0529 H       1  UNL1        0.1597
      5 C          14.5850   40.9733    9.2094 C.ar    1  UNL1        0.2224
      6 C          12.5617   40.8438    9.8220 C.ar    1  UNL1        0.1559
      7 C          13.2565   39.8664   10.5100 C.ar    1  UNL1        0.1122
      8 C          15.6207   39.1230   10.5792 C.3     1  UNL1        0.1322
      9 N          13.3791   41.5420    9.0096 N.ar    1  UNL1       -0.2058
     10 N          14.5334   39.9643   10.1072 N.ar    1  UNL1       -0.3020
     11 C          15.7977   41.4313    8.5098 C.2     1  UNL1        0.3758
     12 O          16.9291   40.9729    8.8259 O.2     1  UNL1       -0.2415
     13 O          15.6740   42.3842    7.4879 O.3     1  UNL1       -0.4506
     14 C          15.9000   44.6024    6.5307 C.3     1  UNL1        0.0437
     15 C          16.5836   43.4656    7.2706 C.3     1  UNL1        0.1367
     16 C          17.7974   42.9974    6.4865 C.3     1  UNL1        0.0437
     17 C          17.0517   43.9820    8.6145 C.3     1  UNL1        0.0437
     18 O           9.1793   42.5377    9.9463 O.3     1  UNL1       -0.4337
     19 C           8.3507   41.5266   10.5151 C.3     1  UNL1        0.2187
     20 C           7.2072   41.1330    9.5722 C.3     1  UNL1        0.0884
     21 C           5.8654   41.5572   10.1068 C.ar    1  UNL1       -0.0148
     22 C           5.2312   41.1208   11.2715 C.ar    1  UNL1       -0.0038
     23 C           3.9656   41.6459   11.5804 C.ar    1  UNL1       -0.0003
     24 C           3.3522   42.5832   10.7264 C.ar    1  UNL1       -0.0000
     25 C           3.9946   43.0027    9.5506 C.ar    1  UNL1       -0.0003
     26 C           5.2508   42.4689    9.2674 C.ar    1  UNL1       -0.0038
     27 C           6.1155   42.6965    8.1333 C.ar    1  UNL1       -0.0038
     28 C           5.9277   43.5138    7.0199 C.ar    1  UNL1       -0.0003
     29 C           6.9356   43.5350    6.0429 C.ar    1  UNL1       -0.0000
     30 C           8.0937   42.7471    6.1935 C.ar    1  UNL1       -0.0003
     31 C           8.2586   41.9298    7.3241 C.ar    1  UNL1       -0.0038
     32 C           7.2512   41.9224    8.2903 C.ar    1  UNL1       -0.0148
@<TRIPOS>BOND
     1    14    15    1
     2    15    16    1
     3    15    17    1
     4    15    13    1
     5    11    13    1
     6    11     5    1
     7     6     9   ar
     8     6     3    1
     9     7    10   ar
    10     8    10    1
    11     1    18    1
    12    19    18    1
    13    19    20    1
    14    20    21    1
    15    20    32    1
    16    22    23   ar
    17    24    25   ar
    18    26    27    1
    19    26    21   ar
    20    28    29   ar
    21    30    31   ar
    22    32    27   ar
    23    10     5   ar
    24     3     1   am
    25    11    12    2
    26     5     9   ar
    27     6     7   ar
    28     1     2    2
    29    21    22   ar
    30    23    24   ar
    31    25    26   ar
    32    27    28   ar
    33    29    30   ar
    34    31    32   ar
    35     3     4    1
@<TRIPOS>MOLECULE
MolPort-051-779-407 MCULE-4415854814 PubChem-165756065
 32 35 0 0 0
SMALL
GASTEIGER

@<TRIPOS>ATOM
      1 C           9.0333   39.7736    8.0785 C.2     1  UNL1        0.4065
      2 O           8.8245   38.7658    7.3491 O.2     1  UNL1       -0.2261
      3 N          10.1488   39.8090    8.9748 N.am    1  UNL1       -0.2338
      4 H          10.2988   40.6440    9.4743 H       1  UNL1        0.1597
      5 C          12.8532   37.5984    9.2336 C.ar    1  UNL1        0.2224
      6 C          11.0651   38.7332    9.2067 C.ar    1  UNL1        0.1559
      7 C          10.7798   37.5431    9.8499 C.ar    1  UNL1        0.1122
      8 C          12.0823   35.5162   10.4348 C.3     1  UNL1        0.1322
      9 N          12.3549   38.7808    8.8196 N.ar    1  UNL1       -0.2058
     10 N          11.9232   36.8396    9.8549 N.ar    1  UNL1       -0.3020
     11 C          14.2590   37.2163    9.0156 C.2     1  UNL1        0.3758
     12 O          14.6295   36.7517    7.9034 O.2     1  UNL1       -0.2415
     13 O          15.1775   37.3771   10.0634 O.3     1  UNL1       -0.4506
     14 C          14.4095   38.9084   11.7819 C.3     1  UNL1        0.0437
     15 C          15.4542   38.6175   10.7184 C.3     1  UNL1        0.1367
     16 C          15.4982   39.7569    9.7148 C.3     1  UNL1        0.0437
     17 C          16.8071   38.5189   11.3905 C.3     1  UNL1        0.0437
     18 O           8.1817   40.8773    8.0175 O.3     1  UNL1       -0.4337
     19 C           6.8143   40.8117    8.4152 C.3     1  UNL1        0.2187
     20 C           6.4384   41.9689    9.3484 C.3     1  UNL1        0.0884
     21 C           5.8176   43.1176    8.5992 C.ar    1  UNL1       -0.0148
     22 C           6.4088   43.9225    7.6237 C.ar    1  UNL1       -0.0038
     23 C           5.6437   44.9536    7.0541 C.ar    1  UNL1       -0.0003
     24 C           4.3151   45.1710    7.4683 C.ar    1  UNL1       -0.0000
     25 C           3.7373   44.3634    8.4608 C.ar    1  UNL1       -0.0003
     26 C           4.5161   43.3454    9.0089 C.ar    1  UNL1       -0.0038
     27 C           4.1942   42.3952   10.0477 C.ar    1  UNL1       -0.0038
     28 C           3.0174   42.2385   10.7781 C.ar    1  UNL1       -0.0003
     29 C           2.9796   41.2312   11.7552 C.ar    1  UNL1       -0.0000
     30 C           4.1042   40.4138   11.9829 C.ar    1  UNL1       -0.0003
     31 C           5.2797   40.5929   11.2348 C.ar    1  UNL1       -0.0038
     32 C           5.3017   41.5946   10.2629 C.ar    1  UNL1       -0.0148
@<TRIPOS>BOND
     1    14    15    1
     2    15    16    1
     3    15    17    1
     4    15    13    1
     5    11    13    1
     6    11     5    1
     7     6     9   ar
     8     6     3    1
     9     7    10   ar
    10     8    10    1
    11     1    18    1
    12    19    18    1
    13    19    20    1
    14    20    21    1
    15    20    32    1
    16    22    23   ar
    17    24    25   ar
    18    26    27    1
    19    26    21   ar
    20    28    29   ar
    21    30    31   ar
    22    32    27   ar
    23    10     5   ar
    24     3     1   am
    25    11    12    2
    26     5     9   ar
    27     6     7   ar
    28     1     2    2
    29    21    22   ar
    30    23    24   ar
    31    25    26   ar
    32    27    28   ar
    33    29    30   ar
    34    31    32   ar
    35     3     4    1
@<TRIPOS>MOLECULE
MolPort-051-779-407 MCULE-4415854814 PubChem-165756065
 32 35 0 0 0
SMALL
GASTEIGER

@<TRIPOS>ATOM
      1 C          10.6388   42.4385    9.4830 C.2     1  UNL1        0.4065
      2 O          11.3399   43.4655    9.6946 O.2     1  UNL1       -0.2261
      3 N          11.2490   41.1497    9.3575 N.am    1  UNL1       -0.2338
      4 H          10.6494   40.3756    9.2546 H       1  UNL1        0.1597
      5 C          14.7254   41.0531    8.9413 C.ar    1  UNL1        0.2224
      6 C          12.6573   40.8906    9.3690 C.ar    1  UNL1        0.1559
      7 C          13.3028   39.9238   10.1174 C.ar    1  UNL1        0.1122
      8 C          15.6627   39.2182   10.3999 C.3     1  UNL1        0.1322
      9 N          13.5334   41.6026    8.6333 N.ar    1  UNL1       -0.2058
     10 N          14.6091   40.0425    9.8313 N.ar    1  UNL1       -0.3020
     11 C          15.9887   41.5311    8.3538 C.2     1  UNL1        0.3758
     12 O          17.0950   41.1887    8.8527 O.2     1  UNL1       -0.2415
     13 O          15.9414   42.3721    7.2322 O.3     1  UNL1       -0.4506
     14 C          15.8281   44.6771    6.4828 C.3     1  UNL1        0.0437
     15 C          16.6877   43.5835    7.0927 C.3     1  UNL1        0.1367
     16 C          17.9208   43.3591    6.2344 C.3     1  UNL1        0.0437
     17 C          17.1362   44.0367    8.4658 C.3     1  UNL1        0.0437
     18 O           9.2513   42.5412    9.3751 O.3     1  UNL1       -0.4337
     19 C           8.6109   43.6749    8.7947 C.3     1  UNL1        0.2187
     20 C           7.5740   43.2641    7.7423 C.3     1  UNL1        0.0884
     21 C           7.9454   41.9751    7.0590 C.ar    1  UNL1       -0.0148
     22 C           9.0572   41.7231    6.2531 C.ar    1  UNL1       -0.0038
     23 C           9.2075   40.4390    5.7041 C.ar    1  UNL1       -0.0003
     24 C           8.2509   39.4365    5.9570 C.ar    1  UNL1       -0.0000
     25 C           7.1298   39.7075    6.7574 C.ar    1  UNL1       -0.0003
     26 C           7.0043   40.9885    7.2925 C.ar    1  UNL1       -0.0038
     27 C           5.9568   41.5458    8.1157 C.ar    1  UNL1       -0.0038
     28 C           4.7925   40.9514    8.5993 C.ar    1  UNL1       -0.0003
     29 C           3.9257   41.7385    9.3739 C.ar    1  UNL1       -0.0000
     30 C           4.2331   43.0866    9.6434 C.ar    1  UNL1       -0.0003
     31 C           5.4122   43.6635    9.1428 C.ar    1  UNL1       -0.0038
     32 C           6.2676   42.8680    8.3787 C.ar    1  UNL1       -0.0148
@<TRIPOS>BOND
     1    14    15    1
     2    15    16    1
     3    15    17    1
     4    15    13    1
     5    11    13    1
     6    11     5    1
     7     6     9   ar
     8     6     3    1
     9     7    10   ar
    10     8    10    1
    11     1    18    1
    12    19    18    1
    13    19    20    1
    14    20    21    1
    15    20    32    1
    16    22    23   ar
    17    24    25   ar
    18    26    27    1
    19    26    21   ar
    20    28    29   ar
    21    30    31   ar
    22    32    27   ar
    23    10     5   ar
    24     3     1   am
    25    11    12    2
    26     5     9   ar
    27     6     7   ar
    28     1     2    2
    29    21    22   ar
    30    23    24   ar
    31    25    26   ar
    32    27    28   ar
    33    29    30   ar
    34    31    32   ar
    35     3     4    1
@<TRIPOS>MOLECULE
MolPort-051-779-407 MCULE-4415854814 PubChem-165756065
 32 35 0 0 0
SMALL
GASTEIGER

@<TRIPOS>ATOM
      1 C          10.7238   42.4259    9.7337 C.2     1  UNL1        0.4065
      2 O          11.4315   43.4699    9.7122 O.2     1  UNL1       -0.2261
      3 N          11.3321   41.1303    9.7490 N.am    1  UNL1       -0.2338
      4 H          10.7336   40.3527    9.8280 H       1  UNL1        0.1597
      5 C          14.7659   41.0151    9.0683 C.ar    1  UNL1        0.2224
      6 C          12.7372   40.8691    9.6592 C.ar    1  UNL1        0.1559
      7 C          13.4392   39.9237   10.3838 C.ar    1  UNL1        0.1122
      8 C          15.8141   39.2226   10.5038 C.3     1  UNL1        0.1322
      9 N          13.5534   41.5575    8.8372 N.ar    1  UNL1       -0.2058
     10 N          14.7193   40.0315    9.9941 N.ar    1  UNL1       -0.3020
     11 C          15.9798   41.4732    8.3709 C.2     1  UNL1        0.3758
     12 O          17.1144   41.0434    8.7143 O.2     1  UNL1       -0.2415
     13 O          15.8535   42.3939    7.3202 O.3     1  UNL1       -0.4506
     14 C          17.8308   43.2964    6.2415 C.3     1  UNL1        0.0437
     15 C          16.6566   43.5666    7.1664 C.3     1  UNL1        0.1367
     16 C          17.1637   44.0512    8.5138 C.3     1  UNL1        0.0437
     17 C          15.8062   44.6591    6.5538 C.3     1  UNL1        0.0437
     18 O           9.3315   42.5177    9.7509 O.3     1  UNL1       -0.4337
     19 C           8.4984   41.4366   10.1626 C.3     1  UNL1        0.2187
     20 C           7.5133   41.0276    9.0609 C.3     1  UNL1        0.0884
     21 C           6.8390   42.2204    8.4374 C.ar    1  UNL1       -0.0148
     22 C           5.9793   43.1344    9.0494 C.ar    1  UNL1       -0.0038
     23 C           5.4509   44.1787    8.2725 C.ar    1  UNL1       -0.0003
     24 C           5.7773   44.2899    6.9067 C.ar    1  UNL1       -0.0000
     25 C           6.6316   43.3554    6.3002 C.ar    1  UNL1       -0.0003
     26 C           7.1448   42.3299    7.0927 C.ar    1  UNL1       -0.0038
     27 C           8.0116   41.2320    6.7334 C.ar    1  UNL1       -0.0038
     28 C           8.5707   40.9057    5.4990 C.ar    1  UNL1       -0.0003
     29 C           9.3741   39.7568    5.4246 C.ar    1  UNL1       -0.0000
     30 C           9.5971   38.9653    6.5685 C.ar    1  UNL1       -0.0003
     31 C           9.0206   39.3143    7.8011 C.ar    1  UNL1       -0.0038
     32 C           8.2284   40.4619    7.8621 C.ar    1  UNL1       -0.0148
@<TRIPOS>BOND
     1    14    15    1
     2    15    16    1
     3    15    17    1
     4    15    13    1
     5    11    13    1
     6    11     5    1
     7     6     9   ar
     8     6     3    1
     9     7    10   ar
    10     8    10    1
    11     1    18    1
    12    19    18    1
    13    19    20    1
    14    20    21    1
    15    20    32    1
    16    22    23   ar
    17    24    25   ar
    18    26    27    1
    19    26    21   ar
    20    28    29   ar
    21    30    31   ar
    22    32    27   ar
    23    10     5   ar
    24     3     1   am
    25    11    12    2
    26     5     9   ar
    27     6     7   ar
    28     1     2    2
    29    21    22   ar
    30    23    24   ar
    31    25    26   ar
    32    27    28   ar
    33    29    30   ar
    34    31    32   ar
    35     3     4    1
@<TRIPOS>MOLECULE
MolPort-051-779-407 MCULE-4415854814 PubChem-165756065
 32 35 0 0 0
SMALL
GASTEIGER

@<TRIPOS>ATOM
      1 C          10.5341   40.9760    7.5389 C.2     1  UNL1        0.4065
      2 O          11.0261   42.1265    7.3795 O.2     1  UNL1       -0.2261
      3 N          11.3029   39.9288    8.1400 N.am    1  UNL1       -0.2338
      4 H          10.8489   39.0693    8.2959 H       1  UNL1        0.1597
      5 C          14.6783   40.7046    8.6622 C.ar    1  UNL1        0.2224
      6 C          12.6764   40.0251    8.5339 C.ar    1  UNL1        0.1559
      7 C          13.3160   39.2273    9.4644 C.ar    1  UNL1        0.1122
      8 C          15.6138   39.1184   10.3890 C.3     1  UNL1        0.1322
      9 N          13.5143   40.9513    8.0282 N.ar    1  UNL1       -0.2058
     10 N          14.5808   39.6725    9.5294 N.ar    1  UNL1       -0.3020
     11 C          15.8953   41.4956    8.4111 C.2     1  UNL1        0.3758
     12 O          16.9939   41.1601    8.9313 O.2     1  UNL1       -0.2415
     13 O          15.8126   42.6265    7.5853 O.3     1  UNL1       -0.4506
     14 C          17.9857   42.9089    6.5435 C.3     1  UNL1        0.0437
     15 C          16.8805   43.5509    7.3640 C.3     1  UNL1        0.1367
     16 C          17.4425   44.0487    8.6845 C.3     1  UNL1        0.0437
     17 C          16.3414   44.7383    6.5950 C.3     1  UNL1        0.0437
     18 O           9.2251   40.7067    7.1376 O.3     1  UNL1       -0.4337
     19 C           8.1803   40.4335    8.0682 C.3     1  UNL1        0.2187
     20 C           7.8903   41.6418    8.9668 C.3     1  UNL1        0.0884
     21 C           6.4424   41.7060    9.3740 C.ar    1  UNL1       -0.0148
     22 C           5.3289   41.8842    8.5510 C.ar    1  UNL1       -0.0038
     23 C           4.0571   41.9221    9.1460 C.ar    1  UNL1       -0.0003
     24 C           3.9161   41.7920   10.5415 C.ar    1  UNL1       -0.0000
     25 C           5.0454   41.6278   11.3592 C.ar    1  UNL1       -0.0003
     26 C           6.2961   41.5910   10.7448 C.ar    1  UNL1       -0.0038
     27 C           7.6091   41.4618   11.3323 C.ar    1  UNL1       -0.0038
     28 C           7.9776   41.3352   12.6706 C.ar    1  UNL1       -0.0003
     29 C           9.3462   41.2431   12.9694 C.ar    1  UNL1       -0.0000
     30 C          10.3068   41.2826   11.9397 C.ar    1  UNL1       -0.0003
     31 C           9.9101   41.4129   10.5984 C.ar    1  UNL1       -0.0038
     32 C           8.5460   41.4980   10.3150 C.ar    1  UNL1       -0.0148
@<TRIPOS>BOND
     1    14    15    1
     2    15    16    1
     3    15    17    1
     4    15    13    1
     5    11    13    1
     6    11     5    1
     7     6     9   ar
     8     6     3    1
     9     7    10   ar
    10     8    10    1
    11     1    18    1
    12    19    18    1
    13    19    20    1
    14    20    21    1
    15    20    32    1
    16    22    23   ar
    17    24    25   ar
    18    26    27    1
    19    26    21   ar
    20    28    29   ar
    21    30    31   ar
    22    32    27   ar
    23    10     5   ar
    24     3     1   am
    25    11    12    2
    26     5     9   ar
    27     6     7   ar
    28     1     2    2
    29    21    22   ar
    30    23    24   ar
    31    25    26   ar
    32    27    28   ar
    33    29    30   ar
    34    31    32   ar
    35     3     4    1
@<TRIPOS>MOLECULE
MolPort-051-779-407 MCULE-4415854814 PubChem-165756065
 32 35 0 0 0
SMALL
GASTEIGER

@<TRIPOS>ATOM
      1 C           9.2374   41.3569    7.3921 C.2     1  UNL1        0.4065
      2 O           9.5967   40.6103    6.4410 O.2     1  UNL1       -0.2261
      3 N          10.2071   41.9566    8.2575 N.am    1  UNL1       -0.2338
      4 H           9.8744   42.5787    8.9442 H       1  UNL1        0.1597
      5 C          13.5173   40.8478    8.5421 C.ar    1  UNL1        0.2224
      6 C          11.6201   41.7286    8.2094 C.ar    1  UNL1        0.1559
      7 C          12.5443   42.4809    7.5085 C.ar    1  UNL1        0.1122
      8 C          15.0001   42.3752    7.1852 C.3     1  UNL1        0.1322
      9 N          12.2138   40.7064    8.8561 N.ar    1  UNL1       -0.2058
     10 N          13.7375   41.9082    7.7334 N.ar    1  UNL1       -0.3020
     11 C          14.5526   39.9276    9.0430 C.2     1  UNL1        0.3758
     12 O          15.7547   40.3005    9.1219 O.2     1  UNL1       -0.2415
     13 O          14.1807   38.6317    9.4301 O.3     1  UNL1       -0.4506
     14 C          13.7954   39.2185   11.7527 C.3     1  UNL1        0.0437
     15 C          14.2235   38.1406   10.7720 C.3     1  UNL1        0.1367
     16 C          15.6187   37.6518   11.1211 C.3     1  UNL1        0.0437
     17 C          13.2641   36.9757   10.8922 C.3     1  UNL1        0.0437
     18 O           7.8842   41.6176    7.6120 O.3     1  UNL1       -0.4337
     19 C           7.1732   41.0829    8.7259 C.3     1  UNL1        0.2187
     20 C           6.5810   42.1904    9.6059 C.3     1  UNL1        0.0884
     21 C           5.9168   43.2652    8.7875 C.ar    1  UNL1       -0.0148
     22 C           6.5115   44.1317    7.8686 C.ar    1  UNL1       -0.0038
     23 C           5.6993   45.0736    7.2156 C.ar    1  UNL1       -0.0003
     24 C           4.3200   45.1431    7.4927 C.ar    1  UNL1       -0.0000
     25 C           3.7372   44.2753    8.4299 C.ar    1  UNL1       -0.0003
     26 C           4.5636   43.3481    9.0627 C.ar    1  UNL1       -0.0038
     27 C           4.2448   42.3666   10.0730 C.ar    1  UNL1       -0.0038
     28 C           3.0248   42.0804   10.6833 C.ar    1  UNL1       -0.0003
     29 C           2.9993   41.0734   11.6611 C.ar    1  UNL1       -0.0000
     30 C           4.1780   40.3840   12.0079 C.ar    1  UNL1       -0.0003
     31 C           5.3961   40.6923   11.3797 C.ar    1  UNL1       -0.0038
     32 C           5.4060   41.6920   10.4055 C.ar    1  UNL1       -0.0148
@<TRIPOS>BOND
     1    14    15    1
     2    15    16    1
     3    15    17    1
     4    15    13    1
     5    11    13    1
     6    11     5    1
     7     6     9   ar
     8     6     3    1
     9     7    10   ar
    10     8    10    1
    11     1    18    1
    12    19    18    1
    13    19    20    1
    14    20    21    1
    15    20    32    1
    16    22    23   ar
    17    24    25   ar
    18    26    27    1
    19    26    21   ar
    20    28    29   ar
    21    30    31   ar
    22    32    27   ar
    23    10     5   ar
    24     3     1   am
    25    11    12    2
    26     5     9   ar
    27     6     7   ar
    28     1     2    2
    29    21    22   ar
    30    23    24   ar
    31    25    26   ar
    32    27    28   ar
    33    29    30   ar
    34    31    32   ar
    35     3     4    1
@<TRIPOS>MOLECULE
MolPort-051-779-407 MCULE-4415854814 PubChem-165756065
 32 35 0 0 0
SMALL
GASTEIGER

@<TRIPOS>ATOM
      1 C           9.1551   41.3605    7.8990 C.2     1  UNL1        0.4065
      2 O           8.2988   40.4364    7.9611 O.2     1  UNL1       -0.2261
      3 N           8.7572   42.7329    7.9826 N.am    1  UNL1       -0.2338
      4 H           9.4724   43.4095    7.9906 H       1  UNL1        0.1597
      5 C           5.4014   43.4407    8.6933 C.ar    1  UNL1        0.2224
      6 C           7.4074   43.2056    8.0557 C.ar    1  UNL1        0.1559
      7 C           6.8419   44.1851    7.2606 C.ar    1  UNL1        0.1122
      8 C           4.6054   45.2453    7.1177 C.3     1  UNL1        0.1322
      9 N           6.5202   42.7351    8.9542 N.ar    1  UNL1       -0.2058
     10 N           5.5732   44.3174    7.6790 N.ar    1  UNL1       -0.3020
     11 C           4.1539   43.2489    9.4528 C.2     1  UNL1        0.3758
     12 O           3.0403   43.5338    8.9344 O.2     1  UNL1       -0.2415
     13 O           4.2246   42.7452   10.7600 O.3     1  UNL1       -0.4506
     14 C           3.0207   41.2215   12.2147 C.3     1  UNL1        0.0437
     15 C           4.0538   41.3700   11.1113 C.3     1  UNL1        0.1367
     16 C           5.3727   40.7611   11.5557 C.3     1  UNL1        0.0437
     17 C           3.5649   40.6161    9.8930 C.3     1  UNL1        0.0437
     18 O          10.5098   41.0585    7.7551 O.3     1  UNL1       -0.4337
     19 C          11.4993   42.0626    7.5433 C.3     1  UNL1        0.2187
     20 C          12.8008   41.4694    6.9903 C.3     1  UNL1        0.0884
     21 C          13.8141   42.5356    6.6701 C.ar    1  UNL1       -0.0148
     22 C          13.7166   43.5502    5.7161 C.ar    1  UNL1       -0.0038
     23 C          14.7929   44.4418    5.5761 C.ar    1  UNL1       -0.0003
     24 C          15.9443   44.3044    6.3758 C.ar    1  UNL1       -0.0000
     25 C          16.0354   43.2706    7.3214 C.ar    1  UNL1       -0.0003
     26 C          14.9534   42.4004    7.4431 C.ar    1  UNL1       -0.0038
     27 C          14.7864   41.2502    8.3004 C.ar    1  UNL1       -0.0038
     28 C          15.6606   40.7042    9.2387 C.ar    1  UNL1       -0.0003
     29 C          15.2472   39.5554    9.9315 C.ar    1  UNL1       -0.0000
     30 C          13.9873   38.9801    9.6741 C.ar    1  UNL1       -0.0003
     31 C          13.1247   39.5481    8.7218 C.ar    1  UNL1       -0.0038
     32 C          13.5461   40.6934    8.0441 C.ar    1  UNL1       -0.0148
@<TRIPOS>BOND
     1    14    15    1
     2    15    16    1
     3    15    17    1
     4    15    13    1
     5    11    13    1
     6    11     5    1
     7     6     9   ar
     8     6     3    1
     9     7    10   ar
    10     8    10    1
    11     1    18    1
    12    19    18    1
    13    19    20    1
    14    20    21    1
    15    20    32    1
    16    22    23   ar
    17    24    25   ar
    18    26    27    1
    19    26    21   ar
    20    28    29   ar
    21    30    31   ar
    22    32    27   ar
    23    10     5   ar
    24     3     1   am
    25    11    12    2
    26     5     9   ar
    27     6     7   ar
    28     1     2    2
    29    21    22   ar
    30    23    24   ar
    31    25    26   ar
    32    27    28   ar
    33    29    30   ar
    34    31    32   ar
    35     3     4    1
@<TRIPOS>MOLECULE
MolPort-051-779-407 MCULE-4415854814 PubChem-165756065
 32 35 0 0 0
SMALL
GASTEIGER

@<TRIPOS>ATOM
      1 C           9.9235   41.5468    7.0309 C.2     1  UNL1        0.4065
      2 O          10.1589   40.4603    6.4349 O.2     1  UNL1       -0.2261
      3 N          10.9403   42.1912    7.8052 N.am    1  UNL1       -0.2338
      4 H          10.7205   43.0670    8.1976 H       1  UNL1        0.1597
      5 C          14.3606   41.4960    8.0985 C.ar    1  UNL1        0.2224
      6 C          12.2502   41.6705    8.0578 C.ar    1  UNL1        0.1559
      7 C          12.5470   40.5029    8.7361 C.ar    1  UNL1        0.1122
      8 C          14.6388   39.3294    9.3638 C.3     1  UNL1        0.1322
      9 N          13.3723   42.2998    7.6571 N.ar    1  UNL1       -0.2058
     10 N          13.8862   40.4105    8.7493 N.ar    1  UNL1       -0.3020
     11 C          15.7841   41.8036    7.8775 C.2     1  UNL1        0.3758
     12 O          16.6563   41.4190    8.7030 O.2     1  UNL1       -0.2415
     13 O          16.1533   42.5300    6.7359 O.3     1  UNL1       -0.4506
     14 C          17.2521   44.1814    8.1334 C.3     1  UNL1        0.0437
     15 C          16.7081   43.8475    6.7552 C.3     1  UNL1        0.1367
     16 C          15.6656   44.8755    6.3503 C.3     1  UNL1        0.0437
     17 C          17.8496   43.9068    5.7626 C.3     1  UNL1        0.0437
     18 O           8.6658   42.1442    6.9382 O.3     1  UNL1       -0.4337
     19 C           7.9268   42.5538    8.0864 C.3     1  UNL1        0.2187
     20 C           7.5187   41.3579    8.9552 C.3     1  UNL1        0.0884
     21 C           8.2284   41.3581   10.2827 C.ar    1  UNL1       -0.0148
     22 C           9.5982   41.2319   10.5209 C.ar    1  UNL1       -0.0038
     23 C          10.0500   41.2500   11.8508 C.ar    1  UNL1       -0.0003
     24 C           9.1365   41.3833   12.9148 C.ar    1  UNL1       -0.0000
     25 C           7.7600   41.4948   12.6619 C.ar    1  UNL1       -0.0003
     26 C           7.3369   41.4766   11.3339 C.ar    1  UNL1       -0.0038
     27 C           6.0007   41.5454   10.7903 C.ar    1  UNL1       -0.0038
     28 C           4.7762   41.6525   11.4475 C.ar    1  UNL1       -0.0003
     29 C           3.6109   41.6823   10.6652 C.ar    1  UNL1       -0.0000
     30 C           3.6906   41.6018    9.2609 C.ar    1  UNL1       -0.0003
     31 C           4.9369   41.4923    8.6220 C.ar    1  UNL1       -0.0038
     32 C           6.0877   41.4693    9.4117 C.ar    1  UNL1       -0.0148
@<TRIPOS>BOND
     1    14    15    1
     2    15    16    1
     3    15    17    1
     4    15    13    1
     5    11    13    1
     6    11     5    1
     7     6     9   ar
     8     6     3    1
     9     7    10   ar
    10     8    10    1
    11     1    18    1
    12    19    18    1
    13    19    20    1
    14    20    21    1
    15    20    32    1
    16    22    23   ar
    17    24    25   ar
    18    26    27    1
    19    26    21   ar
    20    28    29   ar
    21    30    31   ar
    22    32    27   ar
    23    10     5   ar
    24     3     1   am
    25    11    12    2
    26     5     9   ar
    27     6     7   ar
    28     1     2    2
    29    21    22   ar
    30    23    24   ar
    31    25    26   ar
    32    27    28   ar
    33    29    30   ar
    34    31    32   ar
    35     3     4    1
@<TRIPOS>MOLECULE
MolPort-051-779-407 MCULE-4415854814 PubChem-165756065
 32 35 0 0 0
SMALL
GASTEIGER

@<TRIPOS>ATOM
      1 C          10.1148   41.3153   10.4987 C.2     1  UNL1        0.4065
      2 O          10.7598   42.0427   11.3024 O.2     1  UNL1       -0.2261
      3 N          10.7648   40.7126    9.3748 N.am    1  UNL1       -0.2338
      4 H          10.2277   40.1055    8.8160 H       1  UNL1        0.1597
      5 C          14.2374   40.7196    8.9179 C.ar    1  UNL1        0.2224
      6 C          12.1301   40.9175    8.9941 C.ar    1  UNL1        0.1559
      7 C          12.5833   41.7859    8.0185 C.ar    1  UNL1        0.1122
      8 C          14.8094   42.3748    7.0996 C.3     1  UNL1        0.1322
      9 N          13.1513   40.2454    9.5607 N.ar    1  UNL1       -0.2058
     10 N          13.9182   41.6465    7.9873 N.ar    1  UNL1       -0.3020
     11 C          15.6005   40.2524    9.2237 C.2     1  UNL1        0.3758
     12 O          16.5095   41.0780    9.5102 O.2     1  UNL1       -0.2415
     13 O          15.8706   38.8763    9.1911 O.3     1  UNL1       -0.4506
     14 C          14.7968   36.9614   10.2242 C.3     1  UNL1        0.0437
     15 C          15.8779   38.0222   10.3376 C.3     1  UNL1        0.1367
     16 C          15.6769   38.8282   11.6094 C.3     1  UNL1        0.0437
     17 C          17.2217   37.3297   10.4170 C.3     1  UNL1        0.0437
     18 O           8.7539   41.0792   10.6972 O.3     1  UNL1       -0.4337
     19 C           7.7757   42.1115   10.5982 C.3     1  UNL1        0.2187
     20 C           6.6046   41.6994    9.6980 C.3     1  UNL1        0.0884
     21 C           5.3286   41.5269   10.4779 C.ar    1  UNL1       -0.0148
     22 C           5.0579   40.5940   11.4806 C.ar    1  UNL1       -0.0038
     23 C           3.7859   40.6033   12.0765 C.ar    1  UNL1       -0.0003
     24 C           2.8082   41.5284   11.6612 C.ar    1  UNL1       -0.0000
     25 C           3.0888   42.4517   10.6415 C.ar    1  UNL1       -0.0003
     26 C           4.3588   42.4241   10.0676 C.ar    1  UNL1       -0.0038
     27 C           4.9059   43.2266    8.9988 C.ar    1  UNL1       -0.0038
     28 C           4.3121   44.2466    8.2572 C.ar    1  UNL1       -0.0003
     29 C           5.0761   44.8571    7.2501 C.ar    1  UNL1       -0.0000
     30 C           6.3991   44.4398    7.0044 C.ar    1  UNL1       -0.0003
     31 C           6.9745   43.4078    7.7644 C.ar    1  UNL1       -0.0038
     32 C           6.2054   42.8132    8.7661 C.ar    1  UNL1       -0.0148
@<TRIPOS>BOND
     1    14    15    1
     2    15    16    1
     3    15    17    1
     4    15    13    1
     5    11    13    1
     6    11     5    1
     7     6     9   ar
     8     6     3    1
     9     7    10   ar
    10     8    10    1
    11     1    18    1
    12    19    18    1
    13    19    20    1
    14    20    21    1
    15    20    32    1
    16    22    23   ar
    17    24    25   ar
    18    26    27    1
    19    26    21   ar
    20    28    29   ar
    21    30    31   ar
    22    32    27   ar
    23    10     5   ar
    24     3     1   am
    25    11    12    2
    26     5     9   ar
    27     6     7   ar
    28     1     2    2
    29    21    22   ar
    30    23    24   ar
    31    25    26   ar
    32    27    28   ar
    33    29    30   ar
    34    31    32   ar
    35     3     4    1
