@<TRIPOS>MOLECULE
MolPort-007-710-789 ChemDiv-D481-2657 MCULE-7503160676 PubChem-46269942 ZINC000033019581 ZINC33019581
 33 36 0 0 0
SMALL
GASTEIGER

@<TRIPOS>ATOM
      1 C          10.5561   41.5496    6.3573 C.ar    1  UNL1        0.1975
      2 C           8.5766   42.0073    6.9514 C.ar    1  UNL1        0.1706
      3 N           9.9092   41.9825    5.2597 N.ar    1  UNL1       -0.1218
      4 N           8.6700   42.2662    5.6306 N.ar    1  UNL1       -0.1279
      5 N           9.7533   41.5482    7.4409 N.ar    1  UNL1       -0.2690
      6 C          10.1414   41.3082    8.8024 C.ar    1  UNL1        0.0672
      7 C          10.1085   42.3496    9.7415 C.ar    1  UNL1        0.0176
      8 C          10.5050   42.1204   11.0625 C.ar    1  UNL1        0.0015
      9 C          10.9436   40.8512   11.4501 C.ar    1  UNL1        0.0001
     10 C          10.9887   39.8116   10.5165 C.ar    1  UNL1        0.0015
     11 C          10.5912   40.0399    9.1955 C.ar    1  UNL1        0.0176
     12 C           7.3129   42.1596    7.7061 C.ar    1  UNL1        0.0364
     13 C           6.5938   41.0176    8.0865 C.ar    1  UNL1        0.0043
     14 C           5.4151   41.1369    8.8284 C.ar    1  UNL1        0.0148
     15 C           4.9425   42.4019    9.2095 C.ar    1  UNL1        0.0503
     16 C           5.6644   43.5419    8.8395 C.ar    1  UNL1        0.0148
     17 C           6.8447   43.4224    8.0998 C.ar    1  UNL1        0.0043
     18 C           3.4660   42.0520   11.2715 C.2     1  UNL1        0.2266
     19 C           2.1170   42.2376   11.8654 C.3     1  UNL1        0.0949
     20 N           3.7303   42.5621    9.9584 N.am    1  UNL1       -0.2839
     21 O           4.3612   41.4716   11.9407 O.2     1  UNL1       -0.2748
     22 H           3.0076   43.0733    9.5277 H       1  UNL1        0.1549
     23 S          12.3003   41.1245    6.3643 S.3     1  UNL1       -0.0655
     24 C          12.7811   42.6105    7.3022 C.3     1  UNL1        0.1500
     25 C          18.4961   44.1927    7.8341 C.3     1  UNL1        0.0001
     26 C          17.8051   43.1437    6.9803 C.3     1  UNL1        0.0034
     27 C          17.1580   43.7708    5.7401 C.3     1  UNL1        0.0216
     28 C          15.9119   44.5813    6.1027 C.3     1  UNL1        0.0934
     29 C          15.5636   43.1822    8.1426 C.3     1  UNL1        0.0934
     30 C          16.7906   42.3401    7.8016 C.3     1  UNL1        0.0216
     31 C          13.6770   43.4923    6.4923 C.2     1  UNL1        0.2371
     32 N          15.0206   43.7633    6.9188 N.am    1  UNL1       -0.2788
     33 O          13.2377   43.9977    5.4244 O.2     1  UNL1       -0.2739
@<TRIPOS>BOND
     1    25    26    1
     2    26    27    1
     3    27    28    1
     4    28    32    1
     5    29    32    1
     6    29    30    1
     7    30    26    1
     8    24    31    1
     9    24    23    1
    10     1    23    1
    11     2     5   ar
    12     2    12    1
    13     7     8   ar
    14     9    10   ar
    15    11     6   ar
    16    13    14   ar
    17    15    20    1
    18    15    16   ar
    19    19    18    1
    20    17    12   ar
    21    32    31   am
    22     3     4   ar
    23     5     6    1
    24     5     1   ar
    25    20    18   am
    26    31    33    2
    27     1     3   ar
    28     2     4   ar
    29     6     7   ar
    30     8     9   ar
    31    10    11   ar
    32    12    13   ar
    33    14    15   ar
    34    18    21    2
    35    16    17   ar
    36    20    22    1
@<TRIPOS>MOLECULE
MolPort-007-710-789 ChemDiv-D481-2657 MCULE-7503160676 PubChem-46269942 ZINC000033019581 ZINC33019581
 33 36 0 0 0
SMALL
GASTEIGER

@<TRIPOS>ATOM
      1 C           8.8224   41.2475    6.4494 C.ar    1  UNL1        0.1975
      2 C          10.9241   41.4919    6.3897 C.ar    1  UNL1        0.1706
      3 N           9.2070   41.0132    5.1813 N.ar    1  UNL1       -0.1218
      4 N          10.5215   41.1689    5.1433 N.ar    1  UNL1       -0.1279
      5 N           9.8713   41.5535    7.2398 N.ar    1  UNL1       -0.2690
      6 C           9.8617   41.7010    8.6682 C.ar    1  UNL1        0.0672
      7 C           9.7457   42.9731    9.2473 C.ar    1  UNL1        0.0176
      8 C           9.7561   43.1183   10.6379 C.ar    1  UNL1        0.0015
      9 C           9.8900   41.9935   11.4567 C.ar    1  UNL1        0.0001
     10 C          10.0166   40.7238   10.8856 C.ar    1  UNL1        0.0015
     11 C          10.0052   40.5779    9.4950 C.ar    1  UNL1        0.0176
     12 C          12.3351   41.7936    6.7185 C.ar    1  UNL1        0.0364
     13 C          12.9533   42.9141    6.1456 C.ar    1  UNL1        0.0043
     14 C          14.2748   43.2365    6.4679 C.ar    1  UNL1        0.0148
     15 C          14.9955   42.4468    7.3766 C.ar    1  UNL1        0.0503
     16 C          14.3766   41.3342    7.9570 C.ar    1  UNL1        0.0148
     17 C          13.0541   41.0134    7.6368 C.ar    1  UNL1        0.0043
     18 C          17.1224   43.8684    7.2783 C.2     1  UNL1        0.2266
     19 C          18.5541   43.9700    7.6620 C.3     1  UNL1        0.0949
     20 N          16.3566   42.7401    7.7193 N.am    1  UNL1       -0.2839
     21 O          16.5998   44.7867    6.5929 O.2     1  UNL1       -0.2748
     22 H          16.8102   42.1028    8.3171 H       1  UNL1        0.1549
     23 S           7.1254   41.0718    7.0081 S.3     1  UNL1       -0.0655
     24 C           6.8857   42.8647    7.2258 C.3     1  UNL1        0.1500
     25 C           3.7083   40.2402   11.5228 C.3     1  UNL1        0.0001
     26 C           4.6197   41.4553   11.5278 C.3     1  UNL1        0.0034
     27 C           3.9047   42.6918   10.9711 C.3     1  UNL1        0.0216
     28 C           3.7111   42.5973    9.4563 C.3     1  UNL1        0.0934
     29 C           5.6912   41.0857    9.2712 C.3     1  UNL1        0.0934
     30 C           5.9259   41.1724   10.7773 C.3     1  UNL1        0.0216
     31 C           5.5531   43.1599    7.8367 C.2     1  UNL1        0.2371
     32 N           4.9871   42.2826    8.8219 N.am    1  UNL1       -0.2788
     33 O           4.9287   44.1937    7.4760 O.2     1  UNL1       -0.2739
@<TRIPOS>BOND
     1    25    26    1
     2    26    27    1
     3    27    28    1
     4    28    32    1
     5    29    32    1
     6    29    30    1
     7    30    26    1
     8    24    31    1
     9    24    23    1
    10     1    23    1
    11     2     5   ar
    12     2    12    1
    13     7     8   ar
    14     9    10   ar
    15    11     6   ar
    16    13    14   ar
    17    15    20    1
    18    15    16   ar
    19    19    18    1
    20    17    12   ar
    21    32    31   am
    22     3     4   ar
    23     5     6    1
    24     5     1   ar
    25    20    18   am
    26    31    33    2
    27     1     3   ar
    28     2     4   ar
    29     6     7   ar
    30     8     9   ar
    31    10    11   ar
    32    12    13   ar
    33    14    15   ar
    34    18    21    2
    35    16    17   ar
    36    20    22    1
@<TRIPOS>MOLECULE
MolPort-007-710-789 ChemDiv-D481-2657 MCULE-7503160676 PubChem-46269942 ZINC000033019581 ZINC33019581
 33 36 0 0 0
SMALL
GASTEIGER

@<TRIPOS>ATOM
      1 C           9.1733   40.8426    6.4655 C.ar    1  UNL1        0.1975
      2 C          11.1500   41.5938    6.3695 C.ar    1  UNL1        0.1706
      3 N           9.2449   41.6140    5.3652 N.ar    1  UNL1       -0.1218
      4 N          10.4807   42.0862    5.3067 N.ar    1  UNL1       -0.1279
      5 N          10.3488   40.8053    7.1254 N.ar    1  UNL1       -0.2690
      6 C          10.6879   39.9630    8.2379 C.ar    1  UNL1        0.0672
      7 C          10.9677   40.5257    9.4918 C.ar    1  UNL1        0.0176
      8 C          11.3169   39.7067   10.5699 C.ar    1  UNL1        0.0015
      9 C          11.3956   38.3219   10.3985 C.ar    1  UNL1        0.0001
     10 C          11.1281   37.7556    9.1486 C.ar    1  UNL1        0.0015
     11 C          10.7777   38.5740    8.0704 C.ar    1  UNL1        0.0176
     12 C          12.5559   41.9513    6.6617 C.ar    1  UNL1        0.0364
     13 C          13.0860   43.1439    6.1491 C.ar    1  UNL1        0.0043
     14 C          14.4012   43.5175    6.4400 C.ar    1  UNL1        0.0148
     15 C          15.2040   42.7070    7.2570 C.ar    1  UNL1        0.0503
     16 C          14.6732   41.5217    7.7777 C.ar    1  UNL1        0.0148
     17 C          13.3569   41.1494    7.4890 C.ar    1  UNL1        0.0043
     18 C          17.3216   44.1195    6.9840 C.2     1  UNL1        0.2266
     19 C          18.7505   44.2807    7.3573 C.3     1  UNL1        0.0949
     20 N          16.5612   43.0523    7.5645 N.am    1  UNL1       -0.2839
     21 O          16.7963   44.9372    6.1830 O.2     1  UNL1       -0.2748
     22 H          17.0161   42.5014    8.2419 H       1  UNL1        0.1549
     23 S           7.7052   39.9140    6.9186 S.3     1  UNL1       -0.0655
     24 C           6.8379   41.3756    7.5749 C.3     1  UNL1        0.1500
     25 C           2.5071   42.2536   11.5650 C.3     1  UNL1        0.0001
     26 C           3.1228   40.9888   10.9920 C.3     1  UNL1        0.0034
     27 C           4.4581   40.6612   11.6700 C.3     1  UNL1        0.0216
     28 C           5.5618   41.6296   11.2399 C.3     1  UNL1        0.0934
     29 C           4.3803   42.0586    9.0811 C.3     1  UNL1        0.0934
     30 C           3.2708   41.0842    9.4693 C.3     1  UNL1        0.0216
     31 C           6.8066   41.3573    9.0699 C.2     1  UNL1        0.2371
     32 N           5.6081   41.6976    9.7829 N.am    1  UNL1       -0.2788
     33 O           7.8496   41.0373    9.7011 O.2     1  UNL1       -0.2739
@<TRIPOS>BOND
     1    25    26    1
     2    26    27    1
     3    27    28    1
     4    28    32    1
     5    29    32    1
     6    29    30    1
     7    30    26    1
     8    24    31    1
     9    24    23    1
    10     1    23    1
    11     2     5   ar
    12     2    12    1
    13     7     8   ar
    14     9    10   ar
    15    11     6   ar
    16    13    14   ar
    17    15    20    1
    18    15    16   ar
    19    19    18    1
    20    17    12   ar
    21    32    31   am
    22     3     4   ar
    23     5     6    1
    24     5     1   ar
    25    20    18   am
    26    31    33    2
    27     1     3   ar
    28     2     4   ar
    29     6     7   ar
    30     8     9   ar
    31    10    11   ar
    32    12    13   ar
    33    14    15   ar
    34    18    21    2
    35    16    17   ar
    36    20    22    1
@<TRIPOS>MOLECULE
MolPort-007-710-789 ChemDiv-D481-2657 MCULE-7503160676 PubChem-46269942 ZINC000033019581 ZINC33019581
 33 36 0 0 0
SMALL
GASTEIGER

@<TRIPOS>ATOM
      1 C          11.8302   40.5709    9.9953 C.ar    1  UNL1        0.1975
      2 C          12.4462   38.5595    9.7601 C.ar    1  UNL1        0.1706
      3 N          10.7591   39.8009   10.2607 N.ar    1  UNL1       -0.1218
      4 N          11.1436   38.5426   10.1107 N.ar    1  UNL1       -0.1279
      5 N          12.9100   39.8293    9.6747 N.ar    1  UNL1       -0.2690
      6 C          14.2556   40.2969    9.4937 C.ar    1  UNL1        0.0672
      7 C          14.5554   41.2122    8.4741 C.ar    1  UNL1        0.0176
      8 C          15.8690   41.6524    8.2857 C.ar    1  UNL1        0.0015
      9 C          16.8910   41.1744    9.1106 C.ar    1  UNL1        0.0001
     10 C          16.6007   40.2540   10.1220 C.ar    1  UNL1        0.0015
     11 C          15.2869   39.8143   10.3116 C.ar    1  UNL1        0.0176
     12 C          13.2058   37.3265    9.4560 C.ar    1  UNL1        0.0364
     13 C          12.8789   36.1335   10.1162 C.ar    1  UNL1        0.0043
     14 C          13.5613   34.9499    9.8203 C.ar    1  UNL1        0.0148
     15 C          14.5761   34.9401    8.8513 C.ar    1  UNL1        0.0503
     16 C          14.8965   36.1276    8.1843 C.ar    1  UNL1        0.0148
     17 C          14.2122   37.3108    8.4783 C.ar    1  UNL1        0.0043
     18 C          14.7630   32.4290    8.3891 C.2     1  UNL1        0.2266
     19 C          15.6815   31.2878    8.1421 C.3     1  UNL1        0.0949
     20 N          15.3058   33.7477    8.5328 N.am    1  UNL1       -0.2839
     21 O          13.5218   32.2225    8.4439 O.2     1  UNL1       -0.2748
     22 H          16.2764   33.8444    8.3994 H       1  UNL1        0.1549
     23 S          11.8157   42.3593   10.1516 S.3     1  UNL1       -0.0655
     24 C          10.4475   42.5710    8.9673 C.3     1  UNL1        0.1500
     25 C           7.1365   38.5398    6.0979 C.3     1  UNL1        0.0001
     26 C           7.3768   40.0197    5.8546 C.3     1  UNL1        0.0034
     27 C           8.7154   40.2590    5.1467 C.3     1  UNL1        0.0216
     28 C           9.9003   40.0188    6.0843 C.3     1  UNL1        0.0934
     29 C           8.4750   40.5536    8.0649 C.3     1  UNL1        0.0934
     30 C           7.2761   40.8199    7.1580 C.3     1  UNL1        0.0216
     31 C          10.6715   41.7556    7.7340 C.2     1  UNL1        0.2371
     32 N           9.7073   40.7779    7.3157 N.am    1  UNL1       -0.2788
     33 O          11.7217   41.9375    7.0610 O.2     1  UNL1       -0.2739
@<TRIPOS>BOND
     1    25    26    1
     2    26    27    1
     3    27    28    1
     4    28    32    1
     5    29    32    1
     6    29    30    1
     7    30    26    1
     8    24    31    1
     9    24    23    1
    10     1    23    1
    11     2     5   ar
    12     2    12    1
    13     7     8   ar
    14     9    10   ar
    15    11     6   ar
    16    13    14   ar
    17    15    20    1
    18    15    16   ar
    19    19    18    1
    20    17    12   ar
    21    32    31   am
    22     3     4   ar
    23     5     6    1
    24     5     1   ar
    25    20    18   am
    26    31    33    2
    27     1     3   ar
    28     2     4   ar
    29     6     7   ar
    30     8     9   ar
    31    10    11   ar
    32    12    13   ar
    33    14    15   ar
    34    18    21    2
    35    16    17   ar
    36    20    22    1
@<TRIPOS>MOLECULE
MolPort-007-710-789 ChemDiv-D481-2657 MCULE-7503160676 PubChem-46269942 ZINC000033019581 ZINC33019581
 33 36 0 0 0
SMALL
GASTEIGER

@<TRIPOS>ATOM
      1 C           8.2060   41.1024    6.6290 C.ar    1  UNL1        0.1975
      2 C           6.5619   40.9739    7.9560 C.ar    1  UNL1        0.1706
      3 N           7.2943   40.3035    6.0449 N.ar    1  UNL1       -0.1218
      4 N           6.2668   40.2208    6.8763 N.ar    1  UNL1       -0.1279
      5 N           7.7849   41.5429    7.8320 N.ar    1  UNL1       -0.2690
      6 C           8.4163   42.5334    8.6580 C.ar    1  UNL1        0.0672
      7 C           7.9659   43.8616    8.6393 C.ar    1  UNL1        0.0176
      8 C           8.5933   44.8300    9.4290 C.ar    1  UNL1        0.0015
      9 C           9.6788   44.4775   10.2356 C.ar    1  UNL1        0.0001
     10 C          10.1394   43.1576   10.2509 C.ar    1  UNL1        0.0015
     11 C           9.5115   42.1885    9.4623 C.ar    1  UNL1        0.0176
     12 C           5.6606   41.0791    9.1249 C.ar    1  UNL1        0.0364
     13 C           6.2005   41.3433   10.3917 C.ar    1  UNL1        0.0043
     14 C           5.3647   41.4796   11.5039 C.ar    1  UNL1        0.0148
     15 C           3.9735   41.3626   11.3635 C.ar    1  UNL1        0.0503
     16 C           3.4325   41.1090   10.0983 C.ar    1  UNL1        0.0148
     17 C           4.2682   40.9755    8.9855 C.ar    1  UNL1        0.0043
     18 C           1.7874   42.0853   12.4828 C.2     1  UNL1        0.2266
     19 C           1.0388   42.2027   13.7607 C.3     1  UNL1        0.0949
     20 N           3.0878   41.4827   12.4846 N.am    1  UNL1       -0.2839
     21 O           1.2572   42.4947   11.4163 O.2     1  UNL1       -0.2748
     22 H           3.4044   41.1145   13.3410 H       1  UNL1        0.1549
     23 S           9.7436   41.5805    5.8350 S.3     1  UNL1       -0.0655
     24 C          10.7060   40.2545    6.6316 C.3     1  UNL1        0.1500
     25 C          13.8562   39.1379   11.5589 C.3     1  UNL1        0.0001
     26 C          13.9739   38.6204   10.1357 C.3     1  UNL1        0.0034
     27 C          14.6820   39.6342    9.2297 C.3     1  UNL1        0.0216
     28 C          13.7902   40.8400    8.9273 C.3     1  UNL1        0.0934
     29 C          11.7454   39.4508    9.2866 C.3     1  UNL1        0.0934
     30 C          12.6041   38.2219    9.5750 C.3     1  UNL1        0.0216
     31 C          12.0095   40.7721    7.1504 C.2     1  UNL1        0.2371
     32 N          12.4941   40.3766    8.4424 N.am    1  UNL1       -0.2788
     33 O          12.6827   41.5635    6.4368 O.2     1  UNL1       -0.2739
@<TRIPOS>BOND
     1    25    26    1
     2    26    27    1
     3    27    28    1
     4    28    32    1
     5    29    32    1
     6    29    30    1
     7    30    26    1
     8    24    31    1
     9    24    23    1
    10     1    23    1
    11     2     5   ar
    12     2    12    1
    13     7     8   ar
    14     9    10   ar
    15    11     6   ar
    16    13    14   ar
    17    15    20    1
    18    15    16   ar
    19    19    18    1
    20    17    12   ar
    21    32    31   am
    22     3     4   ar
    23     5     6    1
    24     5     1   ar
    25    20    18   am
    26    31    33    2
    27     1     3   ar
    28     2     4   ar
    29     6     7   ar
    30     8     9   ar
    31    10    11   ar
    32    12    13   ar
    33    14    15   ar
    34    18    21    2
    35    16    17   ar
    36    20    22    1
@<TRIPOS>MOLECULE
MolPort-007-710-789 ChemDiv-D481-2657 MCULE-7503160676 PubChem-46269942 ZINC000033019581 ZINC33019581
 33 36 0 0 0
SMALL
GASTEIGER

@<TRIPOS>ATOM
      1 C          11.2632   41.5579   10.0972 C.ar    1  UNL1        0.1975
      2 C          12.6056   39.9216   10.0658 C.ar    1  UNL1        0.1706
      3 N          10.9730   40.7942   11.1664 N.ar    1  UNL1       -0.1218
      4 N          11.8109   39.7690   11.1453 N.ar    1  UNL1       -0.1279
      5 N          12.2817   41.0431    9.3787 N.ar    1  UNL1       -0.2690
      6 C          12.9629   41.6653    8.2783 C.ar    1  UNL1        0.0672
      7 C          12.2583   42.0164    7.1174 C.ar    1  UNL1        0.0176
      8 C          12.9255   42.6043    6.0385 C.ar    1  UNL1        0.0015
      9 C          14.3016   42.8375    6.1112 C.ar    1  UNL1        0.0001
     10 C          15.0117   42.4803    7.2613 C.ar    1  UNL1        0.0015
     11 C          14.3448   41.8934    8.3410 C.ar    1  UNL1        0.0176
     12 C          13.6379   38.9303    9.6895 C.ar    1  UNL1        0.0364
     13 C          14.9015   38.9857   10.2947 C.ar    1  UNL1        0.0043
     14 C          15.8806   38.0394    9.9787 C.ar    1  UNL1        0.0148
     15 C          15.6067   37.0165    9.0580 C.ar    1  UNL1        0.0503
     16 C          14.3429   36.9539    8.4609 C.ar    1  UNL1        0.0148
     17 C          13.3628   37.8987    8.7791 C.ar    1  UNL1        0.0043
     18 C          16.4226   34.6146    8.7124 C.2     1  UNL1        0.2266
     19 C          17.5822   33.7421    8.3941 C.3     1  UNL1        0.0949
     20 N          16.5915   36.0378    8.7002 N.am    1  UNL1       -0.2839
     21 O          15.3054   34.0902    8.9637 O.2     1  UNL1       -0.2748
     22 H          17.4715   36.3772    8.4179 H       1  UNL1        0.1549
     23 S          10.4397   43.1153    9.7515 S.3     1  UNL1       -0.0655
     24 C           8.7966   42.4895   10.2288 C.3     1  UNL1        0.1500
     25 C           3.0215   41.2180    9.5372 C.3     1  UNL1        0.0001
     26 C           3.7376   42.3196   10.2991 C.3     1  UNL1        0.0034
     27 C           4.1843   43.4474    9.3617 C.3     1  UNL1        0.0216
     28 C           5.3615   43.0182    8.4838 C.3     1  UNL1        0.0934
     29 C           6.0648   41.3444   10.1996 C.3     1  UNL1        0.0934
     30 C           4.9120   41.7606   11.1100 C.3     1  UNL1        0.0216
     31 C           7.7318   43.0301    9.3287 C.2     1  UNL1        0.2371
     32 N           6.4153   42.4580    9.3236 N.am    1  UNL1       -0.2788
     33 O           8.0039   43.9996    8.5706 O.2     1  UNL1       -0.2739
@<TRIPOS>BOND
     1    25    26    1
     2    26    27    1
     3    27    28    1
     4    28    32    1
     5    29    32    1
     6    29    30    1
     7    30    26    1
     8    24    31    1
     9    24    23    1
    10     1    23    1
    11     2     5   ar
    12     2    12    1
    13     7     8   ar
    14     9    10   ar
    15    11     6   ar
    16    13    14   ar
    17    15    20    1
    18    15    16   ar
    19    19    18    1
    20    17    12   ar
    21    32    31   am
    22     3     4   ar
    23     5     6    1
    24     5     1   ar
    25    20    18   am
    26    31    33    2
    27     1     3   ar
    28     2     4   ar
    29     6     7   ar
    30     8     9   ar
    31    10    11   ar
    32    12    13   ar
    33    14    15   ar
    34    18    21    2
    35    16    17   ar
    36    20    22    1
@<TRIPOS>MOLECULE
MolPort-007-710-789 ChemDiv-D481-2657 MCULE-7503160676 PubChem-46269942 ZINC000033019581 ZINC33019581
 33 36 0 0 0
SMALL
GASTEIGER

@<TRIPOS>ATOM
      1 C           9.8996   40.9946    6.3422 C.ar    1  UNL1        0.1975
      2 C           8.1165   41.2743    7.4481 C.ar    1  UNL1        0.1706
      3 N           8.9671   41.4309    5.4758 N.ar    1  UNL1       -0.1218
      4 N           7.8507   41.6033    6.1670 N.ar    1  UNL1       -0.1279
      5 N           9.4048   40.8809    7.5915 N.ar    1  UNL1       -0.2690
      6 C          10.1443   40.6047    8.7911 C.ar    1  UNL1        0.0672
      7 C          10.4198   41.6326    9.7048 C.ar    1  UNL1        0.0176
      8 C          11.1566   41.3674   10.8631 C.ar    1  UNL1        0.0015
      9 C          11.6283   40.0752   11.1105 C.ar    1  UNL1        0.0001
     10 C          11.3661   39.0485   10.1987 C.ar    1  UNL1        0.0015
     11 C          10.6283   39.3128    9.0406 C.ar    1  UNL1        0.0176
     12 C           7.0833   41.2954    8.5073 C.ar    1  UNL1        0.0364
     13 C           7.4450   41.6370    9.8182 C.ar    1  UNL1        0.0043
     14 C           6.4795   41.6954   10.8273 C.ar    1  UNL1        0.0148
     15 C           5.1341   41.4216   10.5377 C.ar    1  UNL1        0.0503
     16 C           4.7700   41.0906    9.2280 C.ar    1  UNL1        0.0148
     17 C           5.7352   41.0348    8.2181 C.ar    1  UNL1        0.0043
     18 C           2.8253   42.0631   11.4390 C.2     1  UNL1        0.2266
     19 C           1.9287   42.0851   12.6233 C.3     1  UNL1        0.0949
     20 N           4.1201   41.4586   11.5507 N.am    1  UNL1       -0.2839
     21 O           2.4238   42.5539   10.3508 O.2     1  UNL1       -0.2748
     22 H           4.3345   41.0256   12.4084 H       1  UNL1        0.1549
     23 S          11.6088   40.7006    5.8781 S.3     1  UNL1       -0.0655
     24 C          12.2129   42.2207    6.6803 C.3     1  UNL1        0.1500
     25 C          17.7581   44.1391    5.6715 C.3     1  UNL1        0.0001
     26 C          16.6794   44.6032    6.6347 C.3     1  UNL1        0.0034
     27 C          16.6098   43.7008    7.8720 C.3     1  UNL1        0.0216
     28 C          16.0038   42.3355    7.5411 C.3     1  UNL1        0.0934
     29 C          14.7488   43.3282    5.6229 C.3     1  UNL1        0.0934
     30 C          15.3194   44.7093    5.9357 C.3     1  UNL1        0.0216
     31 C          13.5179   41.9834    7.3709 C.2     1  UNL1        0.2371
     32 N          14.7377   42.5227    6.8400 N.am    1  UNL1       -0.2788
     33 O          13.5356   41.3013    8.4307 O.2     1  UNL1       -0.2739
@<TRIPOS>BOND
     1    25    26    1
     2    26    27    1
     3    27    28    1
     4    28    32    1
     5    29    32    1
     6    29    30    1
     7    30    26    1
     8    24    31    1
     9    24    23    1
    10     1    23    1
    11     2     5   ar
    12     2    12    1
    13     7     8   ar
    14     9    10   ar
    15    11     6   ar
    16    13    14   ar
    17    15    20    1
    18    15    16   ar
    19    19    18    1
    20    17    12   ar
    21    32    31   am
    22     3     4   ar
    23     5     6    1
    24     5     1   ar
    25    20    18   am
    26    31    33    2
    27     1     3   ar
    28     2     4   ar
    29     6     7   ar
    30     8     9   ar
    31    10    11   ar
    32    12    13   ar
    33    14    15   ar
    34    18    21    2
    35    16    17   ar
    36    20    22    1
@<TRIPOS>MOLECULE
MolPort-007-710-789 ChemDiv-D481-2657 MCULE-7503160676 PubChem-46269942 ZINC000033019581 ZINC33019581
 33 36 0 0 0
SMALL
GASTEIGER

@<TRIPOS>ATOM
      1 C           8.9437   42.7201    8.4486 C.ar    1  UNL1        0.1975
      2 C          10.7486   42.0030    9.2904 C.ar    1  UNL1        0.1706
      3 N           9.1889   43.4669    9.5407 N.ar    1  UNL1       -0.1218
      4 N          10.3166   43.0165   10.0690 N.ar    1  UNL1       -0.1279
      5 N           9.8990   41.7877    8.2575 N.ar    1  UNL1       -0.2690
      6 C          10.0528   40.9307    7.1156 C.ar    1  UNL1        0.0672
      7 C          10.7700   41.3698    5.9930 C.ar    1  UNL1        0.0176
      8 C          10.9031   40.5427    4.8736 C.ar    1  UNL1        0.0015
      9 C          10.3137   39.2754    4.8674 C.ar    1  UNL1        0.0001
     10 C           9.5886   38.8358    5.9789 C.ar    1  UNL1        0.0015
     11 C           9.4562   39.6621    7.0991 C.ar    1  UNL1        0.0176
     12 C          11.9636   41.2187    9.6042 C.ar    1  UNL1        0.0364
     13 C          13.0776   41.3026    8.7570 C.ar    1  UNL1        0.0043
     14 C          14.2472   40.5962    9.0522 C.ar    1  UNL1        0.0148
     15 C          14.3230   39.8015   10.2061 C.ar    1  UNL1        0.0503
     16 C          13.2156   39.7248   11.0580 C.ar    1  UNL1        0.0148
     17 C          12.0469   40.4334   10.7641 C.ar    1  UNL1        0.0043
     18 C          16.8511   39.3981   10.1957 C.2     1  UNL1        0.2266
     19 C          17.9492   38.4579   10.5385 C.3     1  UNL1        0.0949
     20 N          15.5015   39.0527   10.5324 N.am    1  UNL1       -0.2839
     21 O          17.1269   40.4928    9.6374 O.2     1  UNL1       -0.2748
     22 H          15.3705   38.2182   11.0380 H       1  UNL1        0.1549
     23 S           7.5563   43.0170    7.3484 S.3     1  UNL1       -0.0655
     24 C           6.7414   44.1751    8.4947 C.3     1  UNL1        0.1500
     25 C           3.6539   39.8677   11.2079 C.3     1  UNL1        0.0001
     26 C           3.9823   41.2945   11.6120 C.3     1  UNL1        0.0034
     27 C           3.0579   42.2992   10.9146 C.3     1  UNL1        0.0216
     28 C           3.3911   42.4343    9.4274 C.3     1  UNL1        0.0934
     29 C           5.7512   41.7436    9.8667 C.3     1  UNL1        0.0934
     30 C           5.4595   41.6168   11.3599 C.3     1  UNL1        0.0216
     31 C           5.2794   43.8818    8.6079 C.2     1  UNL1        0.2371
     32 N           4.8184   42.6950    9.2709 N.am    1  UNL1       -0.2788
     33 O           4.4512   44.6928    8.1129 O.2     1  UNL1       -0.2739
@<TRIPOS>BOND
     1    25    26    1
     2    26    27    1
     3    27    28    1
     4    28    32    1
     5    29    32    1
     6    29    30    1
     7    30    26    1
     8    24    31    1
     9    24    23    1
    10     1    23    1
    11     2     5   ar
    12     2    12    1
    13     7     8   ar
    14     9    10   ar
    15    11     6   ar
    16    13    14   ar
    17    15    20    1
    18    15    16   ar
    19    19    18    1
    20    17    12   ar
    21    32    31   am
    22     3     4   ar
    23     5     6    1
    24     5     1   ar
    25    20    18   am
    26    31    33    2
    27     1     3   ar
    28     2     4   ar
    29     6     7   ar
    30     8     9   ar
    31    10    11   ar
    32    12    13   ar
    33    14    15   ar
    34    18    21    2
    35    16    17   ar
    36    20    22    1
@<TRIPOS>MOLECULE
MolPort-007-710-789 ChemDiv-D481-2657 MCULE-7503160676 PubChem-46269942 ZINC000033019581 ZINC33019581
 33 36 0 0 0
SMALL
GASTEIGER

@<TRIPOS>ATOM
      1 C           8.7916   41.8912    6.2831 C.ar    1  UNL1        0.1975
      2 C          10.7353   41.2047    6.7637 C.ar    1  UNL1        0.1706
      3 N           9.1712   41.0668    5.2897 N.ar    1  UNL1       -0.1218
      4 N          10.3884   40.6395    5.5888 N.ar    1  UNL1       -0.1279
      5 N           9.7470   42.0062    7.2279 N.ar    1  UNL1       -0.2690
      6 C           9.6291   42.6631    8.4994 C.ar    1  UNL1        0.0672
      7 C           8.7639   43.7563    8.6534 C.ar    1  UNL1        0.0176
      8 C           8.6639   44.4079    9.8864 C.ar    1  UNL1        0.0015
      9 C           9.4335   43.9751   10.9697 C.ar    1  UNL1        0.0001
     10 C          10.3055   42.8927   10.8201 C.ar    1  UNL1        0.0015
     11 C          10.4051   42.2399    9.5876 C.ar    1  UNL1        0.0176
     12 C          12.0603   40.9951    7.3885 C.ar    1  UNL1        0.0364
     13 C          12.2984   39.8274    8.1274 C.ar    1  UNL1        0.0043
     14 C          13.5527   39.5935    8.6983 C.ar    1  UNL1        0.0148
     15 C          14.5919   40.5213    8.5305 C.ar    1  UNL1        0.0503
     16 C          14.3589   41.6821    7.7849 C.ar    1  UNL1        0.0148
     17 C          13.1052   41.9147    7.2116 C.ar    1  UNL1        0.0043
     18 C          16.1882   39.5198   10.2635 C.2     1  UNL1        0.2266
     19 C          17.5785   39.4936   10.7863 C.3     1  UNL1        0.0949
     20 N          15.8863   40.3203    9.1136 N.am    1  UNL1       -0.2839
     21 O          15.3040   38.8198   10.8242 O.2     1  UNL1       -0.2748
     22 H          16.6431   40.7777    8.6810 H       1  UNL1        0.1549
     23 S           7.1678   42.6533    6.3590 S.3     1  UNL1       -0.0655
     24 C           6.3539   41.1391    6.9624 C.3     1  UNL1        0.1500
     25 C           2.8196   42.3980   11.5853 C.3     1  UNL1        0.0001
     26 C           3.1109   41.1016   10.8495 C.3     1  UNL1        0.0034
     27 C           4.4398   40.4877   11.3047 C.3     1  UNL1        0.0216
     28 C           5.6374   41.2838   10.7822 C.3     1  UNL1        0.0934
     29 C           4.2832   42.1022    8.8491 C.3     1  UNL1        0.0934
     30 C           3.0734   41.3050    9.3307 C.3     1  UNL1        0.0216
     31 C           6.5156   40.9936    8.4419 C.2     1  UNL1        0.2371
     32 N           5.5043   41.4722    9.3412 N.am    1  UNL1       -0.2788
     33 O           7.5552   40.4421    8.8937 O.2     1  UNL1       -0.2739
@<TRIPOS>BOND
     1    25    26    1
     2    26    27    1
     3    27    28    1
     4    28    32    1
     5    29    32    1
     6    29    30    1
     7    30    26    1
     8    24    31    1
     9    24    23    1
    10     1    23    1
    11     2     5   ar
    12     2    12    1
    13     7     8   ar
    14     9    10   ar
    15    11     6   ar
    16    13    14   ar
    17    15    20    1
    18    15    16   ar
    19    19    18    1
    20    17    12   ar
    21    32    31   am
    22     3     4   ar
    23     5     6    1
    24     5     1   ar
    25    20    18   am
    26    31    33    2
    27     1     3   ar
    28     2     4   ar
    29     6     7   ar
    30     8     9   ar
    31    10    11   ar
    32    12    13   ar
    33    14    15   ar
    34    18    21    2
    35    16    17   ar
    36    20    22    1
@<TRIPOS>MOLECULE
MolPort-007-710-789 ChemDiv-D481-2657 MCULE-7503160676 PubChem-46269942 ZINC000033019581 ZINC33019581
 33 36 0 0 0
SMALL
GASTEIGER

@<TRIPOS>ATOM
      1 C          11.9355   39.6533    8.1732 C.ar    1  UNL1        0.1975
      2 C          10.2962   40.7100    7.3506 C.ar    1  UNL1        0.1706
      3 N          11.9685   39.4514    6.8433 N.ar    1  UNL1       -0.1218
      4 N          10.9413   40.1101    6.3288 N.ar    1  UNL1       -0.1279
      5 N          10.8987   40.4371    8.5328 N.ar    1  UNL1       -0.2690
      6 C          10.6466   40.9925    9.8328 C.ar    1  UNL1        0.0672
      7 C          10.9664   42.3309   10.1045 C.ar    1  UNL1        0.0176
      8 C          10.7389   42.8659   11.3760 C.ar    1  UNL1        0.0015
      9 C          10.1976   42.0641   12.3847 C.ar    1  UNL1        0.0001
     10 C           9.8864   40.7265   12.1235 C.ar    1  UNL1        0.0015
     11 C          10.1126   40.1912   10.8517 C.ar    1  UNL1        0.0176
     12 C           9.0588   41.4985    7.1589 C.ar    1  UNL1        0.0364
     13 C           7.9899   40.9427    6.4415 C.ar    1  UNL1        0.0043
     14 C           6.7996   41.6569    6.2766 C.ar    1  UNL1        0.0148
     15 C           6.6572   42.9359    6.8358 C.ar    1  UNL1        0.0503
     16 C           7.7192   43.4878    7.5606 C.ar    1  UNL1        0.0148
     17 C           8.9087   42.7724    7.7278 C.ar    1  UNL1        0.0043
     18 C           4.7321   44.3798    7.7094 C.2     1  UNL1        0.2266
     19 C           3.4520   45.0568    7.3774 C.3     1  UNL1        0.0949
     20 N           5.4560   43.7020    6.6747 N.am    1  UNL1       -0.2839
     21 O           5.1717   44.4335    8.8885 O.2     1  UNL1       -0.2748
     22 H           5.0922   43.7692    5.7623 H       1  UNL1        0.1549
     23 S          13.1885   39.0210    9.2928 S.3     1  UNL1       -0.0655
     24 C          13.8305   37.8174    8.0852 C.3     1  UNL1        0.1500
     25 C          17.2009   33.2186    6.3710 C.3     1  UNL1        0.0001
     26 C          17.5019   34.4408    7.2211 C.3     1  UNL1        0.0034
     27 C          16.9904   34.2631    8.6553 C.3     1  UNL1        0.0216
     28 C          15.4643   34.3465    8.7243 C.3     1  UNL1        0.0934
     29 C          15.4224   35.7614    6.6661 C.3     1  UNL1        0.0934
     30 C          16.9458   35.7156    6.5769 C.3     1  UNL1        0.0216
     31 C          14.2472   36.5488    8.7584 C.2     1  UNL1        0.2371
     32 N          15.0130   35.5609    8.0526 N.am    1  UNL1       -0.2788
     33 O          13.9177   36.3552    9.9595 O.2     1  UNL1       -0.2739
@<TRIPOS>BOND
     1    25    26    1
     2    26    27    1
     3    27    28    1
     4    28    32    1
     5    29    32    1
     6    29    30    1
     7    30    26    1
     8    24    31    1
     9    24    23    1
    10     1    23    1
    11     2     5   ar
    12     2    12    1
    13     7     8   ar
    14     9    10   ar
    15    11     6   ar
    16    13    14   ar
    17    15    20    1
    18    15    16   ar
    19    19    18    1
    20    17    12   ar
    21    32    31   am
    22     3     4   ar
    23     5     6    1
    24     5     1   ar
    25    20    18   am
    26    31    33    2
    27     1     3   ar
    28     2     4   ar
    29     6     7   ar
    30     8     9   ar
    31    10    11   ar
    32    12    13   ar
    33    14    15   ar
    34    18    21    2
    35    16    17   ar
    36    20    22    1
