@<TRIPOS>MOLECULE
MolPort-020-280-780 MCULE-5308239970 PubChem-110256833
 26 28 0 0 0
SMALL
GASTEIGER

@<TRIPOS>ATOM
      1 C           9.1634   41.0548   14.4451 C.3     1  UNL1        0.0737
      2 C           9.1635   41.3040   12.9803 C.ar    1  UNL1        0.1406
      3 C          10.3010   41.2793   10.9071 C.ar    1  UNL1        0.0644
      4 C           9.1607   41.7665   10.2686 C.ar    1  UNL1        0.0492
      5 C           8.0206   42.0149   11.0322 C.ar    1  UNL1        0.1368
      6 N          10.2816   41.0573   12.2496 N.ar    1  UNL1       -0.2348
      7 N           8.0452   41.7786   12.3723 N.ar    1  UNL1       -0.2159
      8 C          11.5320   41.0074   10.1083 C.3     1  UNL1        0.0603
      9 C          11.2026   40.1704    8.8682 C.3     1  UNL1        0.0094
     10 C          12.4458   39.7573    8.0628 C.3     1  UNL1        0.0219
     11 C          13.7601   40.1770    8.7224 C.3     1  UNL1        0.0934
     12 C          12.5921   40.3126   10.9660 C.3     1  UNL1        0.0992
     13 C          14.7678   39.0791   10.7505 C.2     1  UNL1        0.2252
     14 N          13.7255   39.8640   10.1511 N.am    1  UNL1       -0.2792
     15 O          14.7171   38.7979   11.9801 O.2     1  UNL1       -0.2749
     16 C          15.9204   38.5857    9.9283 C.3     1  UNL1        0.0767
     17 C          15.8859   37.0739    9.8137 C.3     1  UNL1        0.0096
     18 C          17.2383   39.0295   10.5336 C.3     1  UNL1        0.0096
     19 N           6.8441   42.5154   10.3858 N.pl3   1  UNL1       -0.2679
     20 H           6.9233   43.3838    9.9288 H       1  UNL1        0.1565
     21 C           5.5634   41.8747   10.3401 C.ar    1  UNL1        0.2218
     22 C           3.4576   41.6393    9.2865 C.ar    1  UNL1        0.1034
     23 C           3.0878   40.6673   10.2141 C.ar    1  UNL1        0.0414
     24 C           4.0014   40.3208   11.2076 C.ar    1  UNL1        0.1034
     25 N           4.6821   42.2227    9.3652 N.ar    1  UNL1       -0.2120
     26 N           5.2164   40.9266   11.2536 N.ar    1  UNL1       -0.2120
@<TRIPOS>BOND
     1     1     2    1
     2     2     7   ar
     3     3     6   ar
     4     4     5   ar
     5     5    19    1
     6    21    26   ar
     7    22    25   ar
     8    23    24   ar
     9     8     3    1
    10     8     9    1
    11     9    10    1
    12    10    11    1
    13    11    14    1
    14    12    14    1
    15    12     8    1
    16    16    13    1
    17    16    17    1
    18    16    18    1
    19    19    21    1
    20    14    13   am
    21     2     6   ar
    22     3     4   ar
    23     5     7   ar
    24    21    25   ar
    25    22    23   ar
    26    24    26   ar
    27    13    15    2
    28    19    20    1
@<TRIPOS>MOLECULE
MolPort-020-280-780 MCULE-5308239970 PubChem-110256833
 26 28 0 0 0
SMALL
GASTEIGER

@<TRIPOS>ATOM
      1 C          12.7823   40.2150   10.5607 C.3     1  UNL1        0.0737
      2 C          12.0762   40.7429    9.3646 C.ar    1  UNL1        0.1406
      3 C          10.0542   41.2139    8.2323 C.ar    1  UNL1        0.0644
      4 C          10.7717   41.7208    7.1489 C.ar    1  UNL1        0.0492
      5 C          12.1648   41.7225    7.2107 C.ar    1  UNL1        0.1368
      6 N          10.7187   40.7348    9.3189 N.ar    1  UNL1       -0.2348
      7 N          12.7886   41.2335    8.3172 N.ar    1  UNL1       -0.2159
      8 C           8.5624   41.2023    8.1861 C.3     1  UNL1        0.0603
      9 C           8.0334   42.3938    7.3815 C.3     1  UNL1        0.0094
     10 C           6.4997   42.5051    7.3928 C.3     1  UNL1        0.0219
     11 C           5.8250   41.4668    8.2903 C.3     1  UNL1        0.0934
     12 C           7.9766   41.1992    9.6000 C.3     1  UNL1        0.0992
     13 C           5.8010   41.5368   10.8059 C.2     1  UNL1        0.2252
     14 N           6.5225   41.3857    9.5737 N.am    1  UNL1       -0.2792
     15 O           6.4163   41.4853   11.9070 O.2     1  UNL1       -0.2749
     16 C           4.3180   41.7578   10.7998 C.3     1  UNL1        0.0767
     17 C           3.5963   40.5219   10.2984 C.3     1  UNL1        0.0096
     18 C           3.9586   42.9531    9.9381 C.3     1  UNL1        0.0096
     19 N          12.9110   42.2410    6.1032 N.pl3   1  UNL1       -0.2679
     20 H          12.6191   41.9678    5.2036 H       1  UNL1        0.1565
     21 C          14.0411   43.1187    6.1779 C.ar    1  UNL1        0.2218
     22 C          15.0067   45.2183    5.6691 C.ar    1  UNL1        0.1034
     23 C          16.1912   44.8405    6.2984 C.ar    1  UNL1        0.0414
     24 C          16.2616   43.5696    6.8656 C.ar    1  UNL1        0.1034
     25 N          13.9581   44.3557    5.6202 N.ar    1  UNL1       -0.2120
     26 N          15.1919   42.7351    6.7962 N.ar    1  UNL1       -0.2120
@<TRIPOS>BOND
     1     1     2    1
     2     2     7   ar
     3     3     6   ar
     4     4     5   ar
     5     5    19    1
     6    21    26   ar
     7    22    25   ar
     8    23    24   ar
     9     8     3    1
    10     8     9    1
    11     9    10    1
    12    10    11    1
    13    11    14    1
    14    12    14    1
    15    12     8    1
    16    16    13    1
    17    16    17    1
    18    16    18    1
    19    19    21    1
    20    14    13   am
    21     2     6   ar
    22     3     4   ar
    23     5     7   ar
    24    21    25   ar
    25    22    23   ar
    26    24    26   ar
    27    13    15    2
    28    19    20    1
@<TRIPOS>MOLECULE
MolPort-020-280-780 MCULE-5308239970 PubChem-110256833
 26 28 0 0 0
SMALL
GASTEIGER

@<TRIPOS>ATOM
      1 C           8.5932   41.1509    8.5152 C.3     1  UNL1        0.0737
      2 C          10.0425   40.9963    8.2259 C.ar    1  UNL1        0.1406
      3 C          12.1051   39.9228    8.6566 C.ar    1  UNL1        0.0644
      4 C          12.7253   40.7123    7.6883 C.ar    1  UNL1        0.0492
      5 C          11.9582   41.6495    6.9971 C.ar    1  UNL1        0.1368
      6 N          10.7768   40.0791    8.9074 N.ar    1  UNL1       -0.2348
      7 N          10.6325   41.7724    7.2799 N.ar    1  UNL1       -0.2159
      8 C          12.9083   38.9142    9.4083 C.3     1  UNL1        0.0603
      9 C          13.9489   39.6007   10.2987 C.3     1  UNL1        0.0094
     10 C          14.8873   38.6138   11.0130 C.3     1  UNL1        0.0219
     11 C          14.6565   37.1579   10.6057 C.3     1  UNL1        0.0934
     12 C          13.5805   37.9312    8.4469 C.3     1  UNL1        0.0992
     13 C          15.3501   36.1513    8.4059 C.2     1  UNL1        0.2252
     14 N          14.5254   37.0596    9.1520 N.am    1  UNL1       -0.2792
     15 O          15.2427   36.0894    7.1496 O.2     1  UNL1       -0.2749
     16 C          16.3435   35.2724    9.1051 C.3     1  UNL1        0.0767
     17 C          17.7311   35.8812    9.0435 C.3     1  UNL1        0.0096
     18 C          16.3580   33.8862    8.4897 C.3     1  UNL1        0.0096
     19 N          12.5857   42.4653    6.0006 N.pl3   1  UNL1       -0.2679
     20 H          12.1333   42.5285    5.1284 H       1  UNL1        0.1565
     21 C          13.8078   43.1981    6.1501 C.ar    1  UNL1        0.2218
     22 C          15.0564   45.1584    5.7055 C.ar    1  UNL1        0.1034
     23 C          16.1409   44.6435    6.4130 C.ar    1  UNL1        0.0414
     24 C          16.0164   43.3788    6.9845 C.ar    1  UNL1        0.1034
     25 N          13.9151   44.4308    5.5872 N.ar    1  UNL1       -0.2120
     26 N          14.8590   42.6815    6.8443 N.ar    1  UNL1       -0.2120
@<TRIPOS>BOND
     1     1     2    1
     2     2     7   ar
     3     3     6   ar
     4     4     5   ar
     5     5    19    1
     6    21    26   ar
     7    22    25   ar
     8    23    24   ar
     9     8     3    1
    10     8     9    1
    11     9    10    1
    12    10    11    1
    13    11    14    1
    14    12    14    1
    15    12     8    1
    16    16    13    1
    17    16    17    1
    18    16    18    1
    19    19    21    1
    20    14    13   am
    21     2     6   ar
    22     3     4   ar
    23     5     7   ar
    24    21    25   ar
    25    22    23   ar
    26    24    26   ar
    27    13    15    2
    28    19    20    1
@<TRIPOS>MOLECULE
MolPort-020-280-780 MCULE-5308239970 PubChem-110256833
 26 28 0 0 0
SMALL
GASTEIGER

@<TRIPOS>ATOM
      1 C          14.1002   38.8978   11.5719 C.3     1  UNL1        0.0737
      2 C          13.4450   39.8620   10.6505 C.ar    1  UNL1        0.1406
      3 C          11.5763   41.1973   10.0873 C.ar    1  UNL1        0.0644
      4 C          12.2346   41.6468    8.9427 C.ar    1  UNL1        0.0492
      5 C          13.5199   41.1736    8.6805 C.ar    1  UNL1        0.1368
      6 N          12.1928   40.3142   10.9191 N.ar    1  UNL1       -0.2348
      7 N          14.0989   40.2909    9.5396 N.ar    1  UNL1       -0.2159
      8 C          10.1999   41.6910   10.3860 C.3     1  UNL1        0.0603
      9 C           9.7002   41.1349   11.7232 C.3     1  UNL1        0.0094
     10 C           8.2426   41.5129   12.0350 C.3     1  UNL1        0.0219
     11 C           7.5600   42.2759   10.8989 C.3     1  UNL1        0.0934
     12 C           9.2365   41.3283    9.2535 C.3     1  UNL1        0.0992
     13 C           6.7810   41.2471    8.7383 C.2     1  UNL1        0.2252
     14 N           7.8489   41.6307    9.6181 N.am    1  UNL1       -0.2792
     15 O           7.0410   40.6726    7.6447 O.2     1  UNL1       -0.2749
     16 C           5.3534   41.5209    9.1061 C.3     1  UNL1        0.0767
     17 C           5.0817   43.0129    9.1166 C.3     1  UNL1        0.0096
     18 C           5.0264   40.9250   10.4619 C.3     1  UNL1        0.0096
     19 N          14.2046   41.6292    7.5075 N.pl3   1  UNL1       -0.2679
     20 H          13.8308   41.3538    6.6394 H       1  UNL1        0.1565
     21 C          15.3807   42.4470    7.4754 C.ar    1  UNL1        0.2218
     22 C          17.6008   42.8239    8.2024 C.ar    1  UNL1        0.1034
     23 C          17.6651   43.9905    7.4429 C.ar    1  UNL1        0.0414
     24 C          16.5449   44.3574    6.6997 C.ar    1  UNL1        0.1034
     25 N          16.4662   42.0767    8.2053 N.ar    1  UNL1       -0.2120
     26 N          15.4283   43.5842    6.7283 N.ar    1  UNL1       -0.2120
@<TRIPOS>BOND
     1     1     2    1
     2     2     7   ar
     3     3     6   ar
     4     4     5   ar
     5     5    19    1
     6    21    26   ar
     7    22    25   ar
     8    23    24   ar
     9     8     3    1
    10     8     9    1
    11     9    10    1
    12    10    11    1
    13    11    14    1
    14    12    14    1
    15    12     8    1
    16    16    13    1
    17    16    17    1
    18    16    18    1
    19    19    21    1
    20    14    13   am
    21     2     6   ar
    22     3     4   ar
    23     5     7   ar
    24    21    25   ar
    25    22    23   ar
    26    24    26   ar
    27    13    15    2
    28    19    20    1
@<TRIPOS>MOLECULE
MolPort-020-280-780 MCULE-5308239970 PubChem-110256833
 26 28 0 0 0
SMALL
GASTEIGER

@<TRIPOS>ATOM
      1 C           8.8635   41.1087    9.0715 C.3     1  UNL1        0.0737
      2 C          10.3032   41.1114    8.7042 C.ar    1  UNL1        0.1406
      3 C          12.4950   40.2887    9.0383 C.ar    1  UNL1        0.0644
      4 C          12.9682   41.1187    8.0221 C.ar    1  UNL1        0.0492
      5 C          12.0631   41.9458    7.3576 C.ar    1  UNL1        0.1368
      6 N          11.1729   40.3003    9.3604 N.ar    1  UNL1       -0.2348
      7 N          10.7493   41.9253    7.7121 N.ar    1  UNL1       -0.2159
      8 C          13.4472   39.3963    9.7625 C.3     1  UNL1        0.0603
      9 C          13.2562   39.5117   11.2781 C.3     1  UNL1        0.0094
     10 C          14.2854   38.7040   12.0862 C.3     1  UNL1        0.0219
     11 C          15.3505   38.0379   11.2140 C.3     1  UNL1        0.0934
     12 C          14.8923   39.7150    9.3718 C.3     1  UNL1        0.0992
     13 C          17.2513   39.2447   10.0896 C.2     1  UNL1        0.2252
     14 N          15.8445   38.9862   10.2155 N.am    1  UNL1       -0.2792
     15 O          17.6649   40.0801    9.2383 O.2     1  UNL1       -0.2749
     16 C          18.2395   38.5316   10.9632 C.3     1  UNL1        0.0767
     17 C          19.6524   38.7450   10.4551 C.3     1  UNL1        0.0096
     18 C          17.9287   37.0483   11.0225 C.3     1  UNL1        0.0096
     19 N          12.5391   42.8020    6.3122 N.pl3   1  UNL1       -0.2679
     20 H          11.9012   43.0268    5.5968 H       1  UNL1        0.1565
     21 C          13.8533   43.3629    6.2071 C.ar    1  UNL1        0.2218
     22 C          15.4797   44.4685    4.8909 C.ar    1  UNL1        0.1034
     23 C          16.3732   44.4542    5.9602 C.ar    1  UNL1        0.0414
     24 C          15.9607   43.8741    7.1581 C.ar    1  UNL1        0.1034
     25 N          14.2422   43.9256    5.0323 N.ar    1  UNL1       -0.2120
     26 N          14.7153   43.3414    7.2608 N.ar    1  UNL1       -0.2120
@<TRIPOS>BOND
     1     1     2    1
     2     2     7   ar
     3     3     6   ar
     4     4     5   ar
     5     5    19    1
     6    21    26   ar
     7    22    25   ar
     8    23    24   ar
     9     8     3    1
    10     8     9    1
    11     9    10    1
    12    10    11    1
    13    11    14    1
    14    12    14    1
    15    12     8    1
    16    16    13    1
    17    16    17    1
    18    16    18    1
    19    19    21    1
    20    14    13   am
    21     2     6   ar
    22     3     4   ar
    23     5     7   ar
    24    21    25   ar
    25    22    23   ar
    26    24    26   ar
    27    13    15    2
    28    19    20    1
@<TRIPOS>MOLECULE
MolPort-020-280-780 MCULE-5308239970 PubChem-110256833
 26 28 0 0 0
SMALL
GASTEIGER

@<TRIPOS>ATOM
      1 C          15.1523   44.8866    5.7784 C.3     1  UNL1        0.0737
      2 C          14.9476   43.6460    6.5700 C.ar    1  UNL1        0.1406
      3 C          13.5326   41.8888    7.2786 C.ar    1  UNL1        0.0644
      4 C          14.5716   41.3494    8.0368 C.ar    1  UNL1        0.0492
      5 C          15.8064   41.9975    8.0370 C.ar    1  UNL1        0.1368
      6 N          13.7393   43.0258    6.5601 N.ar    1  UNL1       -0.2348
      7 N          15.9692   43.1325    7.3037 N.ar    1  UNL1       -0.2159
      8 C          12.2029   41.2109    7.2653 C.3     1  UNL1        0.0603
      9 C          11.6570   41.1111    5.8374 C.3     1  UNL1        0.0094
     10 C          10.2366   40.5260    5.7666 C.3     1  UNL1        0.0219
     11 C           9.6220   40.2632    7.1421 C.3     1  UNL1        0.0934
     12 C          11.2129   41.9421    8.1749 C.3     1  UNL1        0.0992
     13 C           8.7597   42.0439    8.6974 C.2     1  UNL1        0.2252
     14 N           9.8558   41.4084    8.0219 N.am    1  UNL1       -0.2792
     15 O           8.9705   43.0441    9.4382 O.2     1  UNL1       -0.2749
     16 C           7.3604   41.5317    8.5309 C.3     1  UNL1        0.0767
     17 C           6.6008   42.3722    7.5226 C.3     1  UNL1        0.0096
     18 C           6.6294   41.5302    9.8598 C.3     1  UNL1        0.0096
     19 N          16.8801   41.4516    8.8124 N.pl3   1  UNL1       -0.2679
     20 H          17.7447   41.9203    8.7665 H       1  UNL1        0.1565
     21 C          16.8177   40.2896    9.6484 C.ar    1  UNL1        0.2218
     22 C          17.9248   38.4393   10.6234 C.ar    1  UNL1        0.1034
     23 C          16.7434   38.0459   11.2491 C.ar    1  UNL1        0.0414
     24 C          15.5999   38.8157   11.0452 C.ar    1  UNL1        0.1034
     25 N          17.9412   39.5481    9.8384 N.ar    1  UNL1       -0.2120
     26 N          15.6559   39.9178   10.2531 N.ar    1  UNL1       -0.2120
@<TRIPOS>BOND
     1     1     2    1
     2     2     7   ar
     3     3     6   ar
     4     4     5   ar
     5     5    19    1
     6    21    26   ar
     7    22    25   ar
     8    23    24   ar
     9     8     3    1
    10     8     9    1
    11     9    10    1
    12    10    11    1
    13    11    14    1
    14    12    14    1
    15    12     8    1
    16    16    13    1
    17    16    17    1
    18    16    18    1
    19    19    21    1
    20    14    13   am
    21     2     6   ar
    22     3     4   ar
    23     5     7   ar
    24    21    25   ar
    25    22    23   ar
    26    24    26   ar
    27    13    15    2
    28    19    20    1
@<TRIPOS>MOLECULE
MolPort-020-280-780 MCULE-5308239970 PubChem-110256833
 26 28 0 0 0
SMALL
GASTEIGER

@<TRIPOS>ATOM
      1 C          13.5400   39.4953   11.4249 C.3     1  UNL1        0.0737
      2 C          12.9547   40.1121   10.2064 C.ar    1  UNL1        0.1406
      3 C          11.0538   40.6741    8.9168 C.ar    1  UNL1        0.0644
      4 C          11.8740   41.2546    7.9494 C.ar    1  UNL1        0.0492
      5 C          13.2542   41.2447    8.1487 C.ar    1  UNL1        0.1368
      6 N          11.6085   40.1142   10.0261 N.ar    1  UNL1       -0.2348
      7 N          13.7664   40.6737    9.2729 N.ar    1  UNL1       -0.2159
      8 C           9.5740   40.6736    8.7225 C.3     1  UNL1        0.0603
      9 C           9.2091   40.1753    7.3206 C.3     1  UNL1        0.0094
     10 C           7.7043   40.2597    7.0154 C.3     1  UNL1        0.0219
     11 C           6.8971   40.9210    8.1333 C.3     1  UNL1        0.0934
     12 C           8.9945   42.0682    8.9707 C.3     1  UNL1        0.0992
     13 C           6.8852   43.3872    8.6350 C.2     1  UNL1        0.2252
     14 N           7.5787   42.1305    8.5947 N.am    1  UNL1       -0.2792
     15 O           7.4891   44.4283    9.0156 O.2     1  UNL1       -0.2749
     16 C           5.4454   43.4778    8.2266 C.3     1  UNL1        0.0767
     17 C           5.1421   44.8426    7.6391 C.3     1  UNL1        0.0096
     18 C           4.5355   43.2091    9.4099 C.3     1  UNL1        0.0096
     19 N          14.1053   41.8383    7.1610 N.pl3   1  UNL1       -0.2679
     20 H          13.8014   41.7908    6.2258 H       1  UNL1        0.1565
     21 C          15.3560   42.4945    7.4024 C.ar    1  UNL1        0.2218
     22 C          17.5120   42.4404    8.3761 C.ar    1  UNL1        0.1034
     23 C          17.7773   43.7194    7.8908 C.ar    1  UNL1        0.0414
     24 C          16.7873   44.3641    7.1519 C.ar    1  UNL1        0.1034
     25 N          16.3127   41.8535    8.1248 N.ar    1  UNL1       -0.2120
     26 N          15.6005   43.7446    6.9215 N.ar    1  UNL1       -0.2120
@<TRIPOS>BOND
     1     1     2    1
     2     2     7   ar
     3     3     6   ar
     4     4     5   ar
     5     5    19    1
     6    21    26   ar
     7    22    25   ar
     8    23    24   ar
     9     8     3    1
    10     8     9    1
    11     9    10    1
    12    10    11    1
    13    11    14    1
    14    12    14    1
    15    12     8    1
    16    16    13    1
    17    16    17    1
    18    16    18    1
    19    19    21    1
    20    14    13   am
    21     2     6   ar
    22     3     4   ar
    23     5     7   ar
    24    21    25   ar
    25    22    23   ar
    26    24    26   ar
    27    13    15    2
    28    19    20    1
@<TRIPOS>MOLECULE
MolPort-020-280-780 MCULE-5308239970 PubChem-110256833
 26 28 0 0 0
SMALL
GASTEIGER

@<TRIPOS>ATOM
      1 C           9.3469   38.5321    3.2792 C.3     1  UNL1        0.0737
      2 C           9.4308   39.3774    4.4982 C.ar    1  UNL1        0.1406
      3 C          10.7224   40.3282    6.2361 C.ar    1  UNL1        0.0644
      4 C           9.5830   40.9429    6.7551 C.ar    1  UNL1        0.0492
      5 C           8.3636   40.7485    6.1070 C.ar    1  UNL1        0.1368
      6 N          10.6255   39.5576    5.1187 N.ar    1  UNL1       -0.2348
      7 N           8.3123   39.9698    4.9919 N.ar    1  UNL1       -0.2159
      8 C          12.0372   40.5230    6.9150 C.3     1  UNL1        0.0603
      9 C          11.8470   40.7305    8.4208 C.3     1  UNL1        0.0094
     10 C          13.1551   41.0523    9.1626 C.3     1  UNL1        0.0219
     11 C          14.3575   41.2029    8.2297 C.3     1  UNL1        0.0934
     12 C          12.7972   41.6988    6.2969 C.3     1  UNL1        0.0992
     13 C          14.7771   43.1799    6.7301 C.2     1  UNL1        0.2252
     14 N          13.9956   42.0260    7.0756 N.am    1  UNL1       -0.2792
     15 O          14.4439   43.8946    5.7443 O.2     1  UNL1       -0.2749
     16 C          15.9895   43.5486    7.5315 C.3     1  UNL1        0.0767
     17 C          16.8564   44.5305    6.7672 C.3     1  UNL1        0.0096
     18 C          16.7942   42.3123    7.8841 C.3     1  UNL1        0.0096
     19 N           7.1874   41.3755    6.6320 N.pl3   1  UNL1       -0.2679
     20 H           6.5921   41.8170    5.9840 H       1  UNL1        0.1565
     21 C           6.7934   41.4223    8.0088 C.ar    1  UNL1        0.2218
     22 C           7.3498   41.9187   10.2546 C.ar    1  UNL1        0.1034
     23 C           6.0778   41.5291   10.6693 C.ar    1  UNL1        0.0414
     24 C           5.1760   41.0839    9.7048 C.ar    1  UNL1        0.1034
     25 N           7.6835   41.8589    8.9389 N.ar    1  UNL1       -0.2120
     26 N           5.5467   41.0382    8.3987 N.ar    1  UNL1       -0.2120
@<TRIPOS>BOND
     1     1     2    1
     2     2     7   ar
     3     3     6   ar
     4     4     5   ar
     5     5    19    1
     6    21    26   ar
     7    22    25   ar
     8    23    24   ar
     9     8     3    1
    10     8     9    1
    11     9    10    1
    12    10    11    1
    13    11    14    1
    14    12    14    1
    15    12     8    1
    16    16    13    1
    17    16    17    1
    18    16    18    1
    19    19    21    1
    20    14    13   am
    21     2     6   ar
    22     3     4   ar
    23     5     7   ar
    24    21    25   ar
    25    22    23   ar
    26    24    26   ar
    27    13    15    2
    28    19    20    1
@<TRIPOS>MOLECULE
MolPort-020-280-780 MCULE-5308239970 PubChem-110256833
 26 28 0 0 0
SMALL
GASTEIGER

@<TRIPOS>ATOM
      1 C          11.4184   40.5139   11.1401 C.3     1  UNL1        0.0737
      2 C          12.6265   40.4936   10.2753 C.ar    1  UNL1        0.1406
      3 C          14.8530   39.7920    9.8977 C.ar    1  UNL1        0.0644
      4 C          14.8616   40.4578    8.6721 C.ar    1  UNL1        0.0492
      5 C          13.7138   41.1428    8.2745 C.ar    1  UNL1        0.1368
      6 N          13.7371   39.8221   10.6758 N.ar    1  UNL1       -0.2348
      7 N          12.6197   41.1467    9.0841 N.ar    1  UNL1       -0.2159
      8 C          16.0714   39.0535   10.3421 C.3     1  UNL1        0.0603
      9 C          17.3348   39.8788   10.0787 C.3     1  UNL1        0.0094
     10 C          18.6350   39.1265   10.4080 C.3     1  UNL1        0.0219
     11 C          18.4030   37.6750   10.8297 C.3     1  UNL1        0.0934
     12 C          16.1603   37.6901    9.6525 C.3     1  UNL1        0.0992
     13 C          17.7729   35.8052    9.2675 C.2     1  UNL1        0.2252
     14 N          17.4447   37.0382    9.9261 N.am    1  UNL1       -0.2792
     15 O          16.9463   35.2751    8.4741 O.2     1  UNL1       -0.2749
     16 C          19.0931   35.1376    9.5111 C.3     1  UNL1        0.0767
     17 C          19.2022   33.8593    8.7024 C.3     1  UNL1        0.0096
     18 C          19.2757   34.8349   10.9860 C.3     1  UNL1        0.0096
     19 N          13.7123   41.8298    7.0174 N.pl3   1  UNL1       -0.2679
     20 H          13.1126   41.4791    6.3198 H       1  UNL1        0.1565
     21 C          14.4990   42.9779    6.6769 C.ar    1  UNL1        0.2218
     22 C          16.5758   44.1076    6.7793 C.ar    1  UNL1        0.1034
     23 C          16.0497   45.1680    6.0439 C.ar    1  UNL1        0.0414
     24 C          14.7193   45.0934    5.6363 C.ar    1  UNL1        0.1034
     25 N          15.7956   43.0371    7.0812 N.ar    1  UNL1       -0.2120
     26 N          13.9709   44.0062    5.9577 N.ar    1  UNL1       -0.2120
@<TRIPOS>BOND
     1     1     2    1
     2     2     7   ar
     3     3     6   ar
     4     4     5   ar
     5     5    19    1
     6    21    26   ar
     7    22    25   ar
     8    23    24   ar
     9     8     3    1
    10     8     9    1
    11     9    10    1
    12    10    11    1
    13    11    14    1
    14    12    14    1
    15    12     8    1
    16    16    13    1
    17    16    17    1
    18    16    18    1
    19    19    21    1
    20    14    13   am
    21     2     6   ar
    22     3     4   ar
    23     5     7   ar
    24    21    25   ar
    25    22    23   ar
    26    24    26   ar
    27    13    15    2
    28    19    20    1
@<TRIPOS>MOLECULE
MolPort-020-280-780 MCULE-5308239970 PubChem-110256833
 26 28 0 0 0
SMALL
GASTEIGER

@<TRIPOS>ATOM
      1 C           9.0525   41.0634   14.2660 C.3     1  UNL1        0.0737
      2 C           9.0261   41.3150   12.8018 C.ar    1  UNL1        0.1406
      3 C          10.0879   41.1952   10.6922 C.ar    1  UNL1        0.0644
      4 C           8.9744   41.7822   10.0914 C.ar    1  UNL1        0.0492
      5 C           7.8863   42.1280   10.8922 C.ar    1  UNL1        0.1368
      6 N          10.0934   40.9727   12.0347 N.ar    1  UNL1       -0.2348
      7 N           7.9343   41.8874   12.2309 N.ar    1  UNL1       -0.2159
      8 C          11.2633   40.8181    9.8532 C.3     1  UNL1        0.0603
      9 C          12.4341   40.3622   10.7296 C.3     1  UNL1        0.0094
     10 C          13.7158   40.0695    9.9320 C.3     1  UNL1        0.0219
     11 C          13.5885   40.3948    8.4431 C.3     1  UNL1        0.0934
     12 C          11.6813   41.9822    8.9518 C.3     1  UNL1        0.0992
     13 C          13.5723   42.7171    7.4734 C.2     1  UNL1        0.2252
     14 N          12.9471   41.6980    8.2685 N.am    1  UNL1       -0.2792
     15 O          13.0196   43.8449    7.3462 O.2     1  UNL1       -0.2749
     16 C          14.8813   42.4564    6.7903 C.3     1  UNL1        0.0767
     17 C          16.0236   42.5129    7.7863 C.3     1  UNL1        0.0096
     18 C          15.1138   43.4606    5.6778 C.3     1  UNL1        0.0096
     19 N           6.7377   42.7313   10.2848 N.pl3   1  UNL1       -0.2679
     20 H           6.8540   43.6364    9.9154 H       1  UNL1        0.1565
     21 C           5.4360   42.1451   10.1628 C.ar    1  UNL1        0.2218
     22 C           3.9642   40.3655   10.6790 C.ar    1  UNL1        0.1034
     23 C           2.9453   40.9809    9.9544 C.ar    1  UNL1        0.0414
     24 C           3.2173   42.2005    9.3375 C.ar    1  UNL1        0.1034
     25 N           5.1849   40.9550   10.7700 N.ar    1  UNL1       -0.2120
     26 N           4.4505   42.7586    9.4513 N.ar    1  UNL1       -0.2120
@<TRIPOS>BOND
     1     1     2    1
     2     2     7   ar
     3     3     6   ar
     4     4     5   ar
     5     5    19    1
     6    21    26   ar
     7    22    25   ar
     8    23    24   ar
     9     8     3    1
    10     8     9    1
    11     9    10    1
    12    10    11    1
    13    11    14    1
    14    12    14    1
    15    12     8    1
    16    16    13    1
    17    16    17    1
    18    16    18    1
    19    19    21    1
    20    14    13   am
    21     2     6   ar
    22     3     4   ar
    23     5     7   ar
    24    21    25   ar
    25    22    23   ar
    26    24    26   ar
    27    13    15    2
    28    19    20    1
