@<TRIPOS>MOLECULE
MolPort-045-966-356 952991293 CSSS00160229454 MCULE-7681060958 PubChem-131937820 ZINC000952991293
 29 31 0 0 0
SMALL
GASTEIGER

@<TRIPOS>ATOM
      1 C           9.5089   41.6926    9.0727 C.ar    1  UNL1        0.0849
      2 C           9.6735   40.3646    8.6670 C.ar    1  UNL1        0.0190
      3 C          10.8805   39.6995    8.8857 C.ar    1  UNL1        0.0162
      4 C          11.9517   40.3629    9.4968 C.ar    1  UNL1        0.0537
      5 C          11.7983   41.6947    9.8884 C.ar    1  UNL1        0.0528
      6 C          10.5905   42.3783    9.6670 C.ar    1  UNL1        0.1533
      7 C           7.6957   42.5701    7.5172 C.2     1  UNL1        0.2564
      8 O           8.4086   42.4792    6.4822 O.2     1  UNL1       -0.2720
      9 N           8.2506   42.3289    8.8137 N.am    1  UNL1       -0.2795
     10 H           7.7251   42.6241    9.5921 H       1  UNL1        0.1550
     11 C           6.2746   42.9949    7.3987 C.3     1  UNL1        0.2273
     12 C           4.7464   44.4821    7.9635 C.3     1  UNL1        0.1748
     13 O           6.1257   44.2909    7.8931 O.3     1  UNL1       -0.3417
     14 C          14.3967   39.7948    9.0133 C.2     1  UNL1        0.2522
     15 O          15.1744   38.8048    8.9838 O.2     1  UNL1       -0.2697
     16 N          13.1871   39.6932    9.7778 N.am    1  UNL1       -0.2802
     17 H          13.2075   39.1086   10.5697 H       1  UNL1        0.1552
     18 C          14.7865   41.0517    8.3322 C.ar    1  UNL1        0.0864
     19 C          14.0644   41.5854    7.2376 C.ar    1  UNL1        0.0683
     20 C          12.8106   40.9519    6.7238 C.3     1  UNL1        0.0524
     21 C          14.7974   44.4775    5.4516 C.ar    1  UNL1        0.1237
     22 C          15.8589   44.4934    6.3641 C.ar    1  UNL1        0.0612
     23 C          15.6220   43.3591    7.1063 C.ar    1  UNL1        0.1650
     24 C          15.9451   41.7380    8.7589 C.ar    1  UNL1        0.1063
     25 N          14.5272   42.7322    6.6758 N.ar    1  UNL1       -0.2160
     26 N          14.0052   43.3983    5.6644 N.ar    1  UNL1       -0.1624
     27 N          16.3498   42.8859    8.1444 N.ar    1  UNL1       -0.2248
     28 C           9.3540   44.2520   10.7159 C.3     1  UNL1        0.2525
     29 O          10.4661   43.7320    9.9997 O.3     1  UNL1       -0.4701
@<TRIPOS>BOND
     1    12    13    1
     2    11    13    1
     3    11     7    1
     4     7     9   am
     5     2     3   ar
     6     4    16    1
     7     4     5   ar
     8    14    18    1
     9    19    25   ar
    10    20    19    1
    11    21    22   ar
    12    23    27   ar
    13    23    25   ar
    14    24    18   ar
    15     6    29    1
    16     6     1   ar
    17    28    29    1
    18     9     1    1
    19    16    14   am
    20    25    26   ar
    21     7     8    2
    22     1     2   ar
    23     3     4   ar
    24    14    15    2
    25    18    19   ar
    26    21    26   ar
    27    22    23   ar
    28    24    27   ar
    29     5     6   ar
    30     9    10    1
    31    16    17    1
@<TRIPOS>MOLECULE
MolPort-045-966-356 952991293 CSSS00160229454 MCULE-7681060958 PubChem-131937820 ZINC000952991293
 29 31 0 0 0
SMALL
GASTEIGER

@<TRIPOS>ATOM
      1 C           9.4555   40.7027    9.4568 C.ar    1  UNL1        0.0849
      2 C          10.1589   40.0168    8.4618 C.ar    1  UNL1        0.0190
      3 C          11.5119   39.7176    8.6263 C.ar    1  UNL1        0.0162
      4 C          12.1885   40.1209    9.7842 C.ar    1  UNL1        0.0537
      5 C          11.4948   40.8214   10.7734 C.ar    1  UNL1        0.0528
      6 C          10.1341   41.1356   10.6167 C.ar    1  UNL1        0.1533
      7 C           7.5645   42.1421    8.5458 C.2     1  UNL1        0.2564
      8 O           8.3042   43.1377    8.3228 O.2     1  UNL1       -0.2720
      9 N           8.0697   40.9915    9.2299 N.am    1  UNL1       -0.2795
     10 H           7.4114   40.3448    9.5730 H       1  UNL1        0.1550
     11 C           6.1308   42.1855    8.1503 C.3     1  UNL1        0.2273
     12 C           4.4821   41.2312    9.2626 C.3     1  UNL1        0.1748
     13 O           5.5353   40.9478    8.3941 O.3     1  UNL1       -0.3417
     14 C          14.6447   40.0081    9.0849 C.2     1  UNL1        0.2522
     15 O          15.6231   39.2155    9.1058 O.2     1  UNL1       -0.2697
     16 N          13.5649   39.7876   10.0033 N.am    1  UNL1       -0.2802
     17 H          13.7906   39.3680   10.8649 H       1  UNL1        0.1552
     18 C          14.6720   41.1803    8.1790 C.ar    1  UNL1        0.0864
     19 C          15.7564   42.0895    8.1355 C.ar    1  UNL1        0.0683
     20 C          16.9906   41.8993    8.9588 C.3     1  UNL1        0.0524
     21 C          16.0379   44.9240    6.1411 C.ar    1  UNL1        0.1237
     22 C          14.7723   44.4819    5.7381 C.ar    1  UNL1        0.0612
     23 C          14.6020   43.3504    6.5024 C.ar    1  UNL1        0.1650
     24 C          13.5613   41.4340    7.3439 C.ar    1  UNL1        0.1063
     25 N          15.6628   43.1422    7.2823 N.ar    1  UNL1       -0.2160
     26 N          16.5547   44.0919    7.0780 N.ar    1  UNL1       -0.1624
     27 N          13.5381   42.5141    6.5120 N.ar    1  UNL1       -0.2248
     28 C           8.7832   41.3165   12.6861 C.3     1  UNL1        0.2525
     29 O           9.4624   41.8964   11.5804 O.3     1  UNL1       -0.4701
@<TRIPOS>BOND
     1    12    13    1
     2    11    13    1
     3    11     7    1
     4     7     9   am
     5     2     3   ar
     6     4    16    1
     7     4     5   ar
     8    14    18    1
     9    19    25   ar
    10    20    19    1
    11    21    22   ar
    12    23    27   ar
    13    23    25   ar
    14    24    18   ar
    15     6    29    1
    16     6     1   ar
    17    28    29    1
    18     9     1    1
    19    16    14   am
    20    25    26   ar
    21     7     8    2
    22     1     2   ar
    23     3     4   ar
    24    14    15    2
    25    18    19   ar
    26    21    26   ar
    27    22    23   ar
    28    24    27   ar
    29     5     6   ar
    30     9    10    1
    31    16    17    1
@<TRIPOS>MOLECULE
MolPort-045-966-356 952991293 CSSS00160229454 MCULE-7681060958 PubChem-131937820 ZINC000952991293
 29 31 0 0 0
SMALL
GASTEIGER

@<TRIPOS>ATOM
      1 C           9.5927   40.7194    9.5598 C.ar    1  UNL1        0.0849
      2 C          10.2676   41.1416   10.7095 C.ar    1  UNL1        0.0190
      3 C          11.6144   40.8288   10.8977 C.ar    1  UNL1        0.0162
      4 C          12.3025   40.0678    9.9446 C.ar    1  UNL1        0.0537
      5 C          11.6285   39.6290    8.8028 C.ar    1  UNL1        0.0528
      6 C          10.2703   39.9306    8.6049 C.ar    1  UNL1        0.1533
      7 C           7.6959   42.1587    8.6611 C.2     1  UNL1        0.2564
      8 O           8.4581   43.0800    8.2635 O.2     1  UNL1       -0.2720
      9 N           8.2072   41.0614    9.4238 N.am    1  UNL1       -0.2795
     10 H           7.5537   40.4946    9.8938 H       1  UNL1        0.1550
     11 C           6.2352   42.2418    8.3900 C.3     1  UNL1        0.2273
     12 C           4.5589   41.1504    9.3199 C.3     1  UNL1        0.1748
     13 O           5.6633   40.9732    8.4875 O.3     1  UNL1       -0.3417
     14 C          14.7165   40.0112    9.1059 C.2     1  UNL1        0.2522
     15 O          15.7144   39.2436    9.0754 O.2     1  UNL1       -0.2697
     16 N          13.6972   39.7707   10.0863 N.am    1  UNL1       -0.2802
     17 H          13.9825   39.3635   10.9360 H       1  UNL1        0.1552
     18 C          14.6621   41.1768    8.1927 C.ar    1  UNL1        0.0864
     19 C          15.7049   42.1302    8.1048 C.ar    1  UNL1        0.0683
     20 C          16.9747   41.9980    8.8842 C.3     1  UNL1        0.0524
     21 C          15.7953   44.9592    6.0849 C.ar    1  UNL1        0.1237
     22 C          14.5358   44.4616    5.7304 C.ar    1  UNL1        0.0612
     23 C          14.4408   43.3296    6.5070 C.ar    1  UNL1        0.1650
     24 C          13.5125   41.3776    7.3968 C.ar    1  UNL1        0.1063
     25 N          15.5366   43.1718    7.2493 N.ar    1  UNL1       -0.2160
     26 N          16.3799   44.1564    7.0075 N.ar    1  UNL1       -0.1624
     27 N          13.4140   42.4495    6.5599 N.ar    1  UNL1       -0.2248
     28 C           9.1089   38.0931    7.4154 C.3     1  UNL1        0.2525
     29 O           9.5836   39.4306    7.4926 O.3     1  UNL1       -0.4701
@<TRIPOS>BOND
     1    12    13    1
     2    11    13    1
     3    11     7    1
     4     7     9   am
     5     2     3   ar
     6     4    16    1
     7     4     5   ar
     8    14    18    1
     9    19    25   ar
    10    20    19    1
    11    21    22   ar
    12    23    27   ar
    13    23    25   ar
    14    24    18   ar
    15     6    29    1
    16     6     1   ar
    17    28    29    1
    18     9     1    1
    19    16    14   am
    20    25    26   ar
    21     7     8    2
    22     1     2   ar
    23     3     4   ar
    24    14    15    2
    25    18    19   ar
    26    21    26   ar
    27    22    23   ar
    28    24    27   ar
    29     5     6   ar
    30     9    10    1
    31    16    17    1
@<TRIPOS>MOLECULE
MolPort-045-966-356 952991293 CSSS00160229454 MCULE-7681060958 PubChem-131937820 ZINC000952991293
 29 31 0 0 0
SMALL
GASTEIGER

@<TRIPOS>ATOM
      1 C          13.5099   42.0856    6.9561 C.ar    1  UNL1        0.0849
      2 C          12.5261   42.0820    5.9624 C.ar    1  UNL1        0.0190
      3 C          11.6114   41.0321    5.8723 C.ar    1  UNL1        0.0162
      4 C          11.6817   39.9557    6.7654 C.ar    1  UNL1        0.0537
      5 C          12.6732   39.9461    7.7489 C.ar    1  UNL1        0.0528
      6 C          13.6051   40.9935    7.8457 C.ar    1  UNL1        0.1533
      7 C          14.8124   43.9848    5.8724 C.2     1  UNL1        0.2564
      8 O          14.5701   43.6045    4.6957 O.2     1  UNL1       -0.2720
      9 N          14.4289   43.1853    6.9953 N.am    1  UNL1       -0.2795
     10 H          14.8290   43.4087    7.8666 H       1  UNL1        0.1550
     11 C          15.5624   45.2498    6.0988 C.3     1  UNL1        0.2273
     12 C          17.4272   44.2334    6.6949 C.3     1  UNL1        0.1748
     13 O          16.8959   45.0823    5.7249 O.3     1  UNL1       -0.3417
     14 C           9.3678   38.9514    7.1792 C.2     1  UNL1        0.2522
     15 O           8.8318   37.9029    7.6257 O.2     1  UNL1       -0.2697
     16 N          10.7281   38.8867    6.7284 N.am    1  UNL1       -0.2802
     17 H          11.0354   38.0273    6.3591 H       1  UNL1        0.1552
     18 C           8.5629   40.1895    7.0572 C.ar    1  UNL1        0.0864
     19 C           8.5261   41.1816    8.0664 C.ar    1  UNL1        0.0683
     20 C           9.3505   41.0850    9.3107 C.3     1  UNL1        0.0524
     21 C           6.6925   44.1360    8.0370 C.ar    1  UNL1        0.1237
     22 C           6.2989   43.6068    6.8023 C.ar    1  UNL1        0.0612
     23 C           6.9985   42.4227    6.7566 C.ar    1  UNL1        0.1650
     24 C           7.7662   40.3849    5.9071 C.ar    1  UNL1        0.1063
     25 N           7.7346   42.2654    7.8567 N.ar    1  UNL1       -0.2160
     26 N           7.5641   43.3015    8.6545 N.ar    1  UNL1       -0.1624
     27 N           6.9945   41.5002    5.7665 N.ar    1  UNL1       -0.2248
     28 C          14.9925   39.7566    9.4843 C.3     1  UNL1        0.2525
     29 O          14.6374   40.9445    8.7895 O.3     1  UNL1       -0.4701
@<TRIPOS>BOND
     1    12    13    1
     2    11    13    1
     3    11     7    1
     4     7     9   am
     5     2     3   ar
     6     4    16    1
     7     4     5   ar
     8    14    18    1
     9    19    25   ar
    10    20    19    1
    11    21    22   ar
    12    23    27   ar
    13    23    25   ar
    14    24    18   ar
    15     6    29    1
    16     6     1   ar
    17    28    29    1
    18     9     1    1
    19    16    14   am
    20    25    26   ar
    21     7     8    2
    22     1     2   ar
    23     3     4   ar
    24    14    15    2
    25    18    19   ar
    26    21    26   ar
    27    22    23   ar
    28    24    27   ar
    29     5     6   ar
    30     9    10    1
    31    16    17    1
@<TRIPOS>MOLECULE
MolPort-045-966-356 952991293 CSSS00160229454 MCULE-7681060958 PubChem-131937820 ZINC000952991293
 29 31 0 0 0
SMALL
GASTEIGER

@<TRIPOS>ATOM
      1 C          14.2583   41.7027    7.6185 C.ar    1  UNL1        0.0849
      2 C          14.9189   41.1985    8.7431 C.ar    1  UNL1        0.0190
      3 C          14.4079   40.0986    9.4333 C.ar    1  UNL1        0.0162
      4 C          13.2125   39.4983    9.0192 C.ar    1  UNL1        0.0537
      5 C          12.5397   40.0087    7.9068 C.ar    1  UNL1        0.0528
      6 C          13.0395   41.1205    7.2076 C.ar    1  UNL1        0.1533
      7 C          16.2101   43.1942    6.9527 C.2     1  UNL1        0.2564
      8 O          17.0116   42.6704    7.7720 O.2     1  UNL1       -0.2720
      9 N          14.8238   42.8404    6.9543 N.am    1  UNL1       -0.2795
     10 H          14.2074   43.4265    6.4584 H       1  UNL1        0.1550
     11 C          16.6957   44.2403    6.0125 C.3     1  UNL1        0.2273
     12 C          14.9108   45.5017    5.7144 C.3     1  UNL1        0.1748
     13 O          15.6993   44.5404    5.0835 O.3     1  UNL1       -0.3417
     14 C          13.1929   37.0012    9.5653 C.2     1  UNL1        0.2522
     15 O          12.3864   36.0416    9.6862 O.2     1  UNL1       -0.2697
     16 N          12.6875   38.3390    9.6781 N.am    1  UNL1       -0.2802
     17 H          11.9070   38.4733   10.2629 H       1  UNL1        0.1552
     18 C          14.6384   36.7245    9.3930 C.ar    1  UNL1        0.0864
     19 C          15.5927   36.9766   10.4078 C.ar    1  UNL1        0.0683
     20 C          15.2043   37.4842   11.7601 C.3     1  UNL1        0.0524
     21 C          19.0266   36.4577   10.2331 C.ar    1  UNL1        0.1237
     22 C          18.6636   36.0408    8.9471 C.ar    1  UNL1        0.0612
     23 C          17.3001   36.2261    8.9548 C.ar    1  UNL1        0.1650
     24 C          15.1029   36.2216    8.1574 C.ar    1  UNL1        0.1063
     25 N          16.8946   36.7061   10.1304 N.ar    1  UNL1       -0.2160
     26 N          17.9334   36.8553   10.9290 N.ar    1  UNL1       -0.1624
     27 N          16.4279   35.9745    7.9512 N.ar    1  UNL1       -0.2248
     28 C          10.9054   41.7081    6.0939 C.3     1  UNL1        0.2525
     29 O          12.3255   41.6688    6.1359 O.3     1  UNL1       -0.4701
@<TRIPOS>BOND
     1    12    13    1
     2    11    13    1
     3    11     7    1
     4     7     9   am
     5     2     3   ar
     6     4    16    1
     7     4     5   ar
     8    14    18    1
     9    19    25   ar
    10    20    19    1
    11    21    22   ar
    12    23    27   ar
    13    23    25   ar
    14    24    18   ar
    15     6    29    1
    16     6     1   ar
    17    28    29    1
    18     9     1    1
    19    16    14   am
    20    25    26   ar
    21     7     8    2
    22     1     2   ar
    23     3     4   ar
    24    14    15    2
    25    18    19   ar
    26    21    26   ar
    27    22    23   ar
    28    24    27   ar
    29     5     6   ar
    30     9    10    1
    31    16    17    1
@<TRIPOS>MOLECULE
MolPort-045-966-356 952991293 CSSS00160229454 MCULE-7681060958 PubChem-131937820 ZINC000952991293
 29 31 0 0 0
SMALL
GASTEIGER

@<TRIPOS>ATOM
      1 C           9.4235   41.9408    8.5896 C.ar    1  UNL1        0.0849
      2 C          10.4370   42.5239    9.3566 C.ar    1  UNL1        0.0190
      3 C          11.5789   41.7970    9.6952 C.ar    1  UNL1        0.0162
      4 C          11.7140   40.4640    9.2879 C.ar    1  UNL1        0.0537
      5 C          10.6968   39.8715    8.5363 C.ar    1  UNL1        0.0528
      6 C           9.5384   40.5902    8.1950 C.ar    1  UNL1        0.1533
      7 C           7.0424   42.7315    9.0169 C.2     1  UNL1        0.2564
      8 O           6.7899   41.8210    9.8507 O.2     1  UNL1       -0.2720
      9 N           8.2686   42.7317    8.2797 N.am    1  UNL1       -0.2795
     10 H           8.3238   43.3237    7.4950 H       1  UNL1        0.1550
     11 C           6.0280   43.7861    8.7471 C.3     1  UNL1        0.2273
     12 C           3.8228   43.7342    8.7691 C.3     1  UNL1        0.1748
     13 O           4.9365   43.6217    9.6002 O.3     1  UNL1       -0.3417
     14 C          14.1335   39.7604    8.8572 C.2     1  UNL1        0.2522
     15 O          14.8484   38.7247    8.8112 O.2     1  UNL1       -0.2697
     16 N          12.8950   39.7064    9.5793 N.am    1  UNL1       -0.2802
     17 H          12.8525   39.0913   10.3468 H       1  UNL1        0.1552
     18 C          14.6236   41.0155    8.2405 C.ar    1  UNL1        0.0864
     19 C          13.9915   41.6193    7.1269 C.ar    1  UNL1        0.0683
     20 C          12.7380   41.0680    6.5251 C.3     1  UNL1        0.0524
     21 C          14.9679   44.5224    5.4806 C.ar    1  UNL1        0.1237
     22 C          15.9763   44.4550    6.4492 C.ar    1  UNL1        0.0612
     23 C          15.6414   43.3125    7.1393 C.ar    1  UNL1        0.1650
     24 C          15.7897   41.6270    8.7520 C.ar    1  UNL1        0.1063
     25 N          14.5422   42.7570    6.6295 N.ar    1  UNL1       -0.2160
     26 N          14.1117   43.4800    5.6141 N.ar    1  UNL1       -0.1624
     27 N          16.2855   42.7705    8.1989 N.ar    1  UNL1       -0.2248
     28 C           8.6352   38.7123    6.8542 C.3     1  UNL1        0.2525
     29 O           8.4934   39.9702    7.5005 O.3     1  UNL1       -0.4701
@<TRIPOS>BOND
     1    12    13    1
     2    11    13    1
     3    11     7    1
     4     7     9   am
     5     2     3   ar
     6     4    16    1
     7     4     5   ar
     8    14    18    1
     9    19    25   ar
    10    20    19    1
    11    21    22   ar
    12    23    27   ar
    13    23    25   ar
    14    24    18   ar
    15     6    29    1
    16     6     1   ar
    17    28    29    1
    18     9     1    1
    19    16    14   am
    20    25    26   ar
    21     7     8    2
    22     1     2   ar
    23     3     4   ar
    24    14    15    2
    25    18    19   ar
    26    21    26   ar
    27    22    23   ar
    28    24    27   ar
    29     5     6   ar
    30     9    10    1
    31    16    17    1
@<TRIPOS>MOLECULE
MolPort-045-966-356 952991293 CSSS00160229454 MCULE-7681060958 PubChem-131937820 ZINC000952991293
 29 31 0 0 0
SMALL
GASTEIGER

@<TRIPOS>ATOM
      1 C          15.5928   41.6892    8.2389 C.ar    1  UNL1        0.0849
      2 C          16.7503   41.3137    8.9276 C.ar    1  UNL1        0.0190
      3 C          16.7075   40.3066    9.8925 C.ar    1  UNL1        0.0162
      4 C          15.4968   39.6729   10.1986 C.ar    1  UNL1        0.0537
      5 C          14.3345   40.0561    9.5258 C.ar    1  UNL1        0.0528
      6 C          14.3626   41.0742    8.5574 C.ar    1  UNL1        0.1533
      7 C          16.4993   43.9120    7.3933 C.2     1  UNL1        0.2564
      8 O          16.9807   44.2468    8.5087 O.2     1  UNL1       -0.2720
      9 N          15.6938   42.7365    7.2650 N.am    1  UNL1       -0.2795
     10 H          15.1654   42.6388    6.4401 H       1  UNL1        0.1550
     11 C          16.7166   44.7815    6.2055 C.3     1  UNL1        0.2273
     12 C          14.6417   45.0984    5.5271 C.3     1  UNL1        0.1748
     13 O          15.8210   44.4332    5.1943 O.3     1  UNL1       -0.3417
     14 C          15.2729   37.2100   10.8455 C.2     1  UNL1        0.2522
     15 O          14.6753   36.4765   11.6765 O.2     1  UNL1       -0.2697
     16 N          15.4293   38.6032   11.1498 N.am    1  UNL1       -0.2802
     17 H          15.4966   38.8473   12.1012 H       1  UNL1        0.1552
     18 C          15.8629   36.6058    9.6279 C.ar    1  UNL1        0.0864
     19 C          17.2598   36.4804    9.4350 C.ar    1  UNL1        0.0683
     20 C          18.2496   36.8923   10.4780 C.3     1  UNL1        0.0524
     21 C          18.8828   35.1478    6.6634 C.ar    1  UNL1        0.1237
     22 C          17.5545   35.0019    6.2464 C.ar    1  UNL1        0.0612
     23 C          16.8558   35.5190    7.3132 C.ar    1  UNL1        0.1650
     24 C          15.0092   36.1645    8.5926 C.ar    1  UNL1        0.1063
     25 N          17.6885   35.9312    8.2689 N.ar    1  UNL1       -0.2160
     26 N          18.9340   35.7136    7.8941 N.ar    1  UNL1       -0.1624
     27 N          15.5132   35.6230    7.4472 N.ar    1  UNL1       -0.2248
     28 C          12.0482   41.9533    8.6623 C.3     1  UNL1        0.2525
     29 O          13.1829   41.5001    7.9363 O.3     1  UNL1       -0.4701
@<TRIPOS>BOND
     1    12    13    1
     2    11    13    1
     3    11     7    1
     4     7     9   am
     5     2     3   ar
     6     4    16    1
     7     4     5   ar
     8    14    18    1
     9    19    25   ar
    10    20    19    1
    11    21    22   ar
    12    23    27   ar
    13    23    25   ar
    14    24    18   ar
    15     6    29    1
    16     6     1   ar
    17    28    29    1
    18     9     1    1
    19    16    14   am
    20    25    26   ar
    21     7     8    2
    22     1     2   ar
    23     3     4   ar
    24    14    15    2
    25    18    19   ar
    26    21    26   ar
    27    22    23   ar
    28    24    27   ar
    29     5     6   ar
    30     9    10    1
    31    16    17    1
@<TRIPOS>MOLECULE
MolPort-045-966-356 952991293 CSSS00160229454 MCULE-7681060958 PubChem-131937820 ZINC000952991293
 29 31 0 0 0
SMALL
GASTEIGER

@<TRIPOS>ATOM
      1 C           9.9853   40.4142    9.0293 C.ar    1  UNL1        0.0849
      2 C          10.4480   39.1049    8.8657 C.ar    1  UNL1        0.0190
      3 C          11.7690   38.7750    9.1712 C.ar    1  UNL1        0.0162
      4 C          12.6555   39.7590    9.6262 C.ar    1  UNL1        0.0537
      5 C          12.2029   41.0719    9.7750 C.ar    1  UNL1        0.0528
      6 C          10.8772   41.4188    9.4637 C.ar    1  UNL1        0.1533
      7 C           8.0903   40.7463    7.3632 C.2     1  UNL1        0.2564
      8 O           8.8548   40.8076    6.3633 O.2     1  UNL1       -0.2720
      9 N           8.6214   40.6978    8.6909 N.am    1  UNL1       -0.2795
     10 H           7.9989   40.8736    9.4331 H       1  UNL1        0.1550
     11 C           6.6159   40.7885    7.1676 C.3     1  UNL1        0.2273
     12 C           5.7447   42.4383    8.3445 C.3     1  UNL1        0.1748
     13 O           6.1903   42.1129    7.0641 O.3     1  UNL1       -0.3417
     14 C          15.1854   39.8032    9.2637 C.2     1  UNL1        0.2522
     15 O          16.1874   39.0430    9.3277 O.2     1  UNL1       -0.2697
     16 N          14.0040   39.4423    9.9931 N.am    1  UNL1       -0.2802
     17 H          14.1317   38.9289   10.8234 H       1  UNL1        0.1552
     18 C          15.2800   41.0762    8.5112 C.ar    1  UNL1        0.0864
     19 C          14.4022   41.4060    7.4506 C.ar    1  UNL1        0.0683
     20 C          13.2673   40.5183    7.0488 C.3     1  UNL1        0.0524
     21 C          14.4460   44.2928    5.5125 C.ar    1  UNL1        0.1237
     22 C          15.5375   44.5579    6.3479 C.ar    1  UNL1        0.0612
     23 C          15.5724   43.4376    7.1461 C.ar    1  UNL1        0.1650
     24 C          16.3061   41.9929    8.8308 C.ar    1  UNL1        0.1063
     25 N          14.5970   42.5911    6.8161 N.ar    1  UNL1       -0.2160
     26 N          13.8943   43.0933    5.8195 N.ar    1  UNL1       -0.1624
     27 N          16.4406   43.1654    8.1478 N.ar    1  UNL1       -0.2248
     28 C           9.9908   43.3350   10.7607 C.3     1  UNL1        0.2525
     29 O          10.4490   42.7484    9.5499 O.3     1  UNL1       -0.4701
@<TRIPOS>BOND
     1    12    13    1
     2    11    13    1
     3    11     7    1
     4     7     9   am
     5     2     3   ar
     6     4    16    1
     7     4     5   ar
     8    14    18    1
     9    19    25   ar
    10    20    19    1
    11    21    22   ar
    12    23    27   ar
    13    23    25   ar
    14    24    18   ar
    15     6    29    1
    16     6     1   ar
    17    28    29    1
    18     9     1    1
    19    16    14   am
    20    25    26   ar
    21     7     8    2
    22     1     2   ar
    23     3     4   ar
    24    14    15    2
    25    18    19   ar
    26    21    26   ar
    27    22    23   ar
    28    24    27   ar
    29     5     6   ar
    30     9    10    1
    31    16    17    1
@<TRIPOS>MOLECULE
MolPort-045-966-356 952991293 CSSS00160229454 MCULE-7681060958 PubChem-131937820 ZINC000952991293
 29 31 0 0 0
SMALL
GASTEIGER

@<TRIPOS>ATOM
      1 C          10.1812   40.2580    9.1020 C.ar    1  UNL1        0.0849
      2 C          10.3377   40.4692   10.4754 C.ar    1  UNL1        0.0190
      3 C          11.5929   40.3519   11.0736 C.ar    1  UNL1        0.0162
      4 C          12.7103   39.9991   10.3069 C.ar    1  UNL1        0.0537
      5 C          12.5563   39.7702    8.9378 C.ar    1  UNL1        0.0528
      6 C          11.2965   39.8777    8.3245 C.ar    1  UNL1        0.1533
      7 C           8.3843   41.5091    7.8046 C.2     1  UNL1        0.2564
      8 O           9.0039   42.6063    7.8214 O.2     1  UNL1       -0.2720
      9 N           8.8669   40.3827    8.5431 N.am    1  UNL1       -0.2795
     10 H           8.2452   39.6314    8.6785 H       1  UNL1        0.1550
     11 C           7.1010   41.3985    7.0597 C.3     1  UNL1        0.2273
     12 C           7.2037   39.5231    5.9029 C.3     1  UNL1        0.1748
     13 O           7.3399   40.9049    5.7770 O.3     1  UNL1       -0.3417
     14 C          14.6456   38.7320   11.3946 C.2     1  UNL1        0.2522
     15 O          15.4713   38.8477   12.3384 O.2     1  UNL1       -0.2697
     16 N          14.0199   39.9172   10.8829 N.am    1  UNL1       -0.2802
     17 H          14.5388   40.7524   10.9319 H       1  UNL1        0.1552
     18 C          14.4065   37.4001   10.7910 C.ar    1  UNL1        0.0864
     19 C          15.3631   36.7442    9.9792 C.ar    1  UNL1        0.0683
     20 C          16.7189   37.3202    9.7200 C.3     1  UNL1        0.0524
     21 C          15.0254   33.6543    8.4204 C.ar    1  UNL1        0.1237
     22 C          13.7722   33.7404    9.0379 C.ar    1  UNL1        0.0612
     23 C          13.8453   34.9569    9.6770 C.ar    1  UNL1        0.1650
     24 C          13.1631   36.7619   10.9962 C.ar    1  UNL1        0.1063
     25 N          15.0264   35.5353    9.4594 N.ar    1  UNL1       -0.2160
     26 N          15.7656   34.7565    8.6938 N.ar    1  UNL1       -0.1624
     27 N          12.8956   35.5460   10.4402 N.ar    1  UNL1       -0.2248
     28 C          11.4037   40.5206    5.9338 C.3     1  UNL1        0.2525
     29 O          11.1370   39.5807    6.9661 O.3     1  UNL1       -0.4701
@<TRIPOS>BOND
     1    12    13    1
     2    11    13    1
     3    11     7    1
     4     7     9   am
     5     2     3   ar
     6     4    16    1
     7     4     5   ar
     8    14    18    1
     9    19    25   ar
    10    20    19    1
    11    21    22   ar
    12    23    27   ar
    13    23    25   ar
    14    24    18   ar
    15     6    29    1
    16     6     1   ar
    17    28    29    1
    18     9     1    1
    19    16    14   am
    20    25    26   ar
    21     7     8    2
    22     1     2   ar
    23     3     4   ar
    24    14    15    2
    25    18    19   ar
    26    21    26   ar
    27    22    23   ar
    28    24    27   ar
    29     5     6   ar
    30     9    10    1
    31    16    17    1
@<TRIPOS>MOLECULE
MolPort-045-966-356 952991293 CSSS00160229454 MCULE-7681060958 PubChem-131937820 ZINC000952991293
 29 31 0 0 0
SMALL
GASTEIGER

@<TRIPOS>ATOM
      1 C          13.5672   38.1523    8.9901 C.ar    1  UNL1        0.0849
      2 C          14.1745   39.4069    8.8788 C.ar    1  UNL1        0.0190
      3 C          13.5512   40.5457    9.3904 C.ar    1  UNL1        0.0162
      4 C          12.2963   40.4483   10.0042 C.ar    1  UNL1        0.0537
      5 C          11.6775   39.2001   10.1026 C.ar    1  UNL1        0.0528
      6 C          12.2911   38.0468    9.5848 C.ar    1  UNL1        0.1533
      7 C          14.9787   36.0440    9.1895 C.2     1  UNL1        0.2564
      8 O          15.3054   36.2632   10.3866 O.2     1  UNL1       -0.2720
      9 N          14.2489   37.0185    8.4379 N.am    1  UNL1       -0.2795
     10 H          14.2118   36.9007    7.4612 H       1  UNL1        0.1550
     11 C          15.4102   34.7837    8.5265 C.3     1  UNL1        0.2273
     12 C          16.8710   33.1330    8.4396 C.3     1  UNL1        0.1748
     13 O          16.5963   34.3284    9.1026 O.3     1  UNL1       -0.3417
     14 C          10.7616   42.4902    9.9058 C.2     1  UNL1        0.2522
     15 O          10.7214   43.6917   10.2809 O.2     1  UNL1       -0.2697
     16 N          11.6525   41.5912   10.5812 N.am    1  UNL1       -0.2802
     17 H          11.8392   41.7769   11.5298 H       1  UNL1        0.1552
     18 C           9.8393   42.0242    8.8438 C.ar    1  UNL1        0.0864
     19 C           8.5117   41.6106    9.1095 C.ar    1  UNL1        0.0683
     20 C           7.9157   41.6732   10.4799 C.3     1  UNL1        0.0524
     21 C           6.1797   40.4406    6.8107 C.ar    1  UNL1        0.1237
     22 C           7.2624   40.6604    5.9510 C.ar    1  UNL1        0.0612
     23 C           8.2281   41.1282    6.8125 C.ar    1  UNL1        0.1650
     24 C          10.3017   41.9504    7.5110 C.ar    1  UNL1        0.1063
     25 N           7.7634   41.1804    8.0607 N.ar    1  UNL1       -0.2160
     26 N           6.5119   40.7652    8.0842 N.ar    1  UNL1       -0.1624
     27 N           9.4914   41.5063    6.5083 N.ar    1  UNL1       -0.2248
     28 C          11.7037   35.9376   10.7452 C.3     1  UNL1        0.2525
     29 O          11.6356   36.8109    9.6259 O.3     1  UNL1       -0.4701
@<TRIPOS>BOND
     1    12    13    1
     2    11    13    1
     3    11     7    1
     4     7     9   am
     5     2     3   ar
     6     4    16    1
     7     4     5   ar
     8    14    18    1
     9    19    25   ar
    10    20    19    1
    11    21    22   ar
    12    23    27   ar
    13    23    25   ar
    14    24    18   ar
    15     6    29    1
    16     6     1   ar
    17    28    29    1
    18     9     1    1
    19    16    14   am
    20    25    26   ar
    21     7     8    2
    22     1     2   ar
    23     3     4   ar
    24    14    15    2
    25    18    19   ar
    26    21    26   ar
    27    22    23   ar
    28    24    27   ar
    29     5     6   ar
    30     9    10    1
    31    16    17    1
