@<TRIPOS>MOLECULE
MolPort-020-278-652 MCULE-3701403446 PubChem-110255524
 27 30 0 0 0
SMALL
GASTEIGER

@<TRIPOS>ATOM
      1 C           8.3596   40.4518    7.6851 C.3     1  UNL1        0.0522
      2 C           9.8364   40.4936    7.5275 C.ar    1  UNL1        0.0635
      3 C          10.4241   41.4676    6.7232 C.ar    1  UNL1        0.0492
      4 C          11.8170   41.4829    6.5936 C.ar    1  UNL1        0.1357
      5 C          11.9681   39.6064    8.0343 C.ar    1  UNL1        0.1414
      6 N          12.5552   40.5512    7.2532 N.ar    1  UNL1       -0.2159
      7 N          10.6139   39.5830    8.1674 N.ar    1  UNL1       -0.2348
      8 C          12.8186   38.6043    8.7413 C.3     1  UNL1        0.0785
      9 C          11.9509   37.5909    9.4905 C.3     1  UNL1        0.0110
     10 C          12.8280   36.5676   10.2090 C.3     1  UNL1        0.0220
     11 C          13.7708   37.2769   11.1763 C.3     1  UNL1        0.0936
     12 C          13.7831   39.3006    9.7011 C.3     1  UNL1        0.1011
     13 N          14.5280   38.2970   10.4561 N.pl3   1  UNL1       -0.2778
     14 C          15.9623   38.2959   10.4651 C.ar    1  UNL1        0.2202
     15 C          18.0027   37.1847   10.9259 C.ar    1  UNL1        0.1034
     16 C          18.7208   38.2945   10.4853 C.ar    1  UNL1        0.0414
     17 C          18.0103   39.4051   10.0344 C.ar    1  UNL1        0.1034
     18 N          16.6445   37.2037   10.9086 N.ar    1  UNL1       -0.2121
     19 N          16.6521   39.3875   10.0318 N.ar    1  UNL1       -0.2121
     20 N          12.4930   42.4553    5.7836 N.pl3   1  UNL1       -0.2833
     21 H          12.0716   42.6721    4.9206 H       1  UNL1        0.1550
     22 C          13.7118   43.1476    6.0864 C.ar    1  UNL1        0.1332
     23 C          14.6570   42.5264    6.9073 C.ar    1  UNL1        0.0345
     24 C          15.8472   43.1905    7.2093 C.ar    1  UNL1        0.0045
     25 C          16.0831   44.4646    6.6911 C.ar    1  UNL1        0.0208
     26 C          15.1176   45.0562    5.8745 C.ar    1  UNL1        0.1003
     27 N          13.9643   44.3925    5.5921 N.ar    1  UNL1       -0.2290
@<TRIPOS>BOND
     1     1     2    1
     2     2     7   ar
     3     3     4   ar
     4     4    20    1
     5     5     6   ar
     6     8     5    1
     7     8     9    1
     8     9    10    1
     9    10    11    1
    10    11    13    1
    11    12    13    1
    12    12     8    1
    13    14    19   ar
    14    15    18   ar
    15    16    17   ar
    16    22    27   ar
    17    23    24   ar
    18    25    26   ar
    19    13    14    1
    20    20    22    1
    21     2     3   ar
    22     4     6   ar
    23     5     7   ar
    24    14    18   ar
    25    15    16   ar
    26    17    19   ar
    27    22    23   ar
    28    24    25   ar
    29    26    27   ar
    30    20    21    1
@<TRIPOS>MOLECULE
MolPort-020-278-652 MCULE-3701403446 PubChem-110255524
 27 30 0 0 0
SMALL
GASTEIGER

@<TRIPOS>ATOM
      1 C           8.4388   41.0383    8.5064 C.3     1  UNL1        0.0522
      2 C           9.9012   40.9663    8.2534 C.ar    1  UNL1        0.0635
      3 C          10.4751   41.7506    7.2552 C.ar    1  UNL1        0.0492
      4 C          11.8545   41.6623    7.0395 C.ar    1  UNL1        0.1357
      5 C          12.0198   40.0577    8.7766 C.ar    1  UNL1        0.1414
      6 N          12.5935   40.8174    7.8064 N.ar    1  UNL1       -0.2159
      7 N          10.6788   40.1365    8.9948 N.ar    1  UNL1       -0.2348
      8 C          12.8707   39.1453    9.5957 C.3     1  UNL1        0.0785
      9 C          13.1233   39.7409   10.9823 C.3     1  UNL1        0.0110
     10 C          13.9923   38.8007   11.8151 C.3     1  UNL1        0.0220
     11 C          15.3147   38.5423   11.0995 C.3     1  UNL1        0.0936
     12 C          14.1928   38.8607    8.8832 C.3     1  UNL1        0.1011
     13 N          15.0487   38.0545    9.7489 N.pl3   1  UNL1       -0.2778
     14 C          15.5878   36.8050    9.2956 C.ar    1  UNL1        0.2202
     15 C          17.4091   35.5538    8.4423 C.ar    1  UNL1        0.1034
     16 C          16.6242   34.4027    8.4209 C.ar    1  UNL1        0.0414
     17 C          15.3025   34.4958    8.8525 C.ar    1  UNL1        0.1034
     18 N          16.8814   36.7280    8.8763 N.ar    1  UNL1       -0.2121
     19 N          14.8096   35.6873    9.2797 N.ar    1  UNL1       -0.2121
     20 N          12.5159   42.4389    6.0305 N.pl3   1  UNL1       -0.2833
     21 H          12.0841   42.4626    5.1461 H       1  UNL1        0.1550
     22 C          13.7338   43.1846    6.1622 C.ar    1  UNL1        0.1332
     23 C          14.7826   42.6414    6.9093 C.ar    1  UNL1        0.0345
     24 C          15.9729   43.3581    7.0446 C.ar    1  UNL1        0.0045
     25 C          16.1059   44.6064    6.4354 C.ar    1  UNL1        0.0208
     26 C          15.0385   45.1198    5.6963 C.ar    1  UNL1        0.1003
     27 N          13.8868   44.4058    5.5764 N.ar    1  UNL1       -0.2290
@<TRIPOS>BOND
     1     1     2    1
     2     2     7   ar
     3     3     4   ar
     4     4    20    1
     5     5     6   ar
     6     8     5    1
     7     8     9    1
     8     9    10    1
     9    10    11    1
    10    11    13    1
    11    12    13    1
    12    12     8    1
    13    14    19   ar
    14    15    18   ar
    15    16    17   ar
    16    22    27   ar
    17    23    24   ar
    18    25    26   ar
    19    13    14    1
    20    20    22    1
    21     2     3   ar
    22     4     6   ar
    23     5     7   ar
    24    14    18   ar
    25    15    16   ar
    26    17    19   ar
    27    22    23   ar
    28    24    25   ar
    29    26    27   ar
    30    20    21    1
@<TRIPOS>MOLECULE
MolPort-020-278-652 MCULE-3701403446 PubChem-110255524
 27 30 0 0 0
SMALL
GASTEIGER

@<TRIPOS>ATOM
      1 C          10.3748   42.3260   10.3173 C.3     1  UNL1        0.0522
      2 C          11.3701   41.6270    9.4638 C.ar    1  UNL1        0.0635
      3 C          12.1036   42.3425    8.5199 C.ar    1  UNL1        0.0492
      4 C          13.0339   41.6581    7.7305 C.ar    1  UNL1        0.1357
      5 C          12.4728   39.6344    8.8302 C.ar    1  UNL1        0.1414
      6 N          13.1958   40.3197    7.9055 N.ar    1  UNL1       -0.2159
      7 N          11.5655   40.2908    9.6035 N.ar    1  UNL1       -0.2348
      8 C          12.6854   38.1657    8.9890 C.3     1  UNL1        0.0785
      9 C          11.7638   37.5997   10.0714 C.3     1  UNL1        0.0110
     10 C          11.9853   36.0964   10.2260 C.3     1  UNL1        0.0220
     11 C          13.4447   35.8174   10.5724 C.3     1  UNL1        0.0936
     12 C          14.1481   37.8674    9.3175 C.3     1  UNL1        0.1011
     13 N          14.3084   36.4386    9.5719 N.pl3   1  UNL1       -0.2778
     14 C          15.2660   35.6622    8.8387 C.ar    1  UNL1        0.2202
     15 C          16.1245   33.5496    8.1980 C.ar    1  UNL1        0.1034
     16 C          17.1094   34.1688    7.4310 C.ar    1  UNL1        0.0414
     17 C          17.1396   35.5613    7.3932 C.ar    1  UNL1        0.1034
     18 N          15.2252   34.3016    8.8845 N.ar    1  UNL1       -0.2121
     19 N          16.2237   36.2801    8.0929 N.ar    1  UNL1       -0.2121
     20 N          13.8256   42.3274    6.7386 N.pl3   1  UNL1       -0.2833
     21 H          13.4241   42.4096    5.8434 H       1  UNL1        0.1550
     22 C          15.1344   42.8904    6.9012 C.ar    1  UNL1        0.1332
     23 C          15.9933   42.3417    7.8575 C.ar    1  UNL1        0.0345
     24 C          17.2698   42.8814    8.0250 C.ar    1  UNL1        0.0045
     25 C          17.6769   43.9604    7.2393 C.ar    1  UNL1        0.0208
     26 C          16.7938   44.4845    6.2934 C.ar    1  UNL1        0.1003
     27 N          15.5542   43.9443    6.1456 N.ar    1  UNL1       -0.2290
@<TRIPOS>BOND
     1     1     2    1
     2     2     7   ar
     3     3     4   ar
     4     4    20    1
     5     5     6   ar
     6     8     5    1
     7     8     9    1
     8     9    10    1
     9    10    11    1
    10    11    13    1
    11    12    13    1
    12    12     8    1
    13    14    19   ar
    14    15    18   ar
    15    16    17   ar
    16    22    27   ar
    17    23    24   ar
    18    25    26   ar
    19    13    14    1
    20    20    22    1
    21     2     3   ar
    22     4     6   ar
    23     5     7   ar
    24    14    18   ar
    25    15    16   ar
    26    17    19   ar
    27    22    23   ar
    28    24    25   ar
    29    26    27   ar
    30    20    21    1
@<TRIPOS>MOLECULE
MolPort-020-278-652 MCULE-3701403446 PubChem-110255524
 27 30 0 0 0
SMALL
GASTEIGER

@<TRIPOS>ATOM
      1 C           9.1132   40.9883   14.2431 C.3     1  UNL1        0.0522
      2 C           9.1509   41.3949   12.8145 C.ar    1  UNL1        0.0635
      3 C           7.9888   41.8344   12.1842 C.ar    1  UNL1        0.0492
      4 C           8.0542   42.2111   10.8385 C.ar    1  UNL1        0.1357
      5 C          10.3704   41.7070   10.8137 C.ar    1  UNL1        0.1414
      6 N           9.2445   42.1382   10.1860 N.ar    1  UNL1       -0.2159
      7 N          10.3176   41.3386   12.1228 N.ar    1  UNL1       -0.2348
      8 C          11.6559   41.6451   10.0581 C.3     1  UNL1        0.0785
      9 C          11.4321   41.9793    8.5818 C.3     1  UNL1        0.0110
     10 C          12.7521   41.9165    7.8159 C.3     1  UNL1        0.0220
     11 C          13.3717   40.5296    7.9581 C.3     1  UNL1        0.0936
     12 C          12.2999   40.2668   10.2062 C.3     1  UNL1        0.1011
     13 N          13.4980   40.1972    9.3746 N.pl3   1  UNL1       -0.2778
     14 C          14.7676   39.8416    9.9393 C.ar    1  UNL1        0.2202
     15 C          16.0223   38.6877   11.5840 C.ar    1  UNL1        0.1034
     16 C          17.2092   39.1598   11.0273 C.ar    1  UNL1        0.0414
     17 C          17.1317   39.9850    9.9072 C.ar    1  UNL1        0.1034
     18 N          14.8292   39.0342   11.0344 N.ar    1  UNL1       -0.2121
     19 N          15.9204   40.3100    9.3854 N.ar    1  UNL1       -0.2121
     20 N           6.8998   42.6741   10.1233 N.pl3   1  UNL1       -0.2833
     21 H           7.0206   43.4862    9.5800 H       1  UNL1        0.1550
     22 C           5.5902   42.0899   10.1086 C.ar    1  UNL1        0.1332
     23 C           4.5893   42.6914    9.3407 C.ar    1  UNL1        0.0345
     24 C           3.3105   42.1319    9.3187 C.ar    1  UNL1        0.0045
     25 C           3.0425   40.9809   10.0607 C.ar    1  UNL1        0.0208
     26 C           4.0653   40.4057   10.8171 C.ar    1  UNL1        0.1003
     27 N           5.3046   40.9662   10.8252 N.ar    1  UNL1       -0.2290
@<TRIPOS>BOND
     1     1     2    1
     2     2     7   ar
     3     3     4   ar
     4     4    20    1
     5     5     6   ar
     6     8     5    1
     7     8     9    1
     8     9    10    1
     9    10    11    1
    10    11    13    1
    11    12    13    1
    12    12     8    1
    13    14    19   ar
    14    15    18   ar
    15    16    17   ar
    16    22    27   ar
    17    23    24   ar
    18    25    26   ar
    19    13    14    1
    20    20    22    1
    21     2     3   ar
    22     4     6   ar
    23     5     7   ar
    24    14    18   ar
    25    15    16   ar
    26    17    19   ar
    27    22    23   ar
    28    24    25   ar
    29    26    27   ar
    30    20    21    1
@<TRIPOS>MOLECULE
MolPort-020-278-652 MCULE-3701403446 PubChem-110255524
 27 30 0 0 0
SMALL
GASTEIGER

@<TRIPOS>ATOM
      1 C          13.5301   39.5192   11.3269 C.3     1  UNL1        0.0522
      2 C          13.0133   40.0491   10.0385 C.ar    1  UNL1        0.0635
      3 C          13.8696   40.7180    9.1665 C.ar    1  UNL1        0.0492
      4 C          13.3554   41.2059    7.9605 C.ar    1  UNL1        0.1357
      5 C          11.2164   40.3604    8.5346 C.ar    1  UNL1        0.1414
      6 N          12.0403   41.0147    7.6739 N.ar    1  UNL1       -0.2159
      7 N          11.7067   39.8815    9.7103 N.ar    1  UNL1       -0.2348
      8 C           9.7796   40.1720    8.1774 C.3     1  UNL1        0.0785
      9 C           9.6181   39.9813    6.6679 C.3     1  UNL1        0.0110
     10 C           8.1460   39.7865    6.3106 C.3     1  UNL1        0.0220
     11 C           7.3315   40.9866    6.7841 C.3     1  UNL1        0.0936
     12 C           8.9459   41.3579    8.6623 C.3     1  UNL1        0.1011
     13 N           7.5667   41.2011    8.2094 N.pl3   1  UNL1       -0.2778
     14 C           6.4772   41.2272    9.1419 C.ar    1  UNL1        0.2202
     15 C           5.6915   41.4923   11.3606 C.ar    1  UNL1        0.1034
     16 C           4.3823   41.2747   10.9361 C.ar    1  UNL1        0.0414
     17 C           4.1581   41.0324    9.5823 C.ar    1  UNL1        0.1034
     18 N           6.7103   41.4651   10.4625 N.ar    1  UNL1       -0.2121
     19 N           5.2022   41.0128    8.7136 N.ar    1  UNL1       -0.2121
     20 N          14.1760   41.9040    7.0129 N.pl3   1  UNL1       -0.2833
     21 H          13.8597   41.9058    6.0806 H       1  UNL1        0.1550
     22 C          15.4041   42.5994    7.2677 C.ar    1  UNL1        0.1332
     23 C          16.2994   42.0717    8.2021 C.ar    1  UNL1        0.0345
     24 C          17.4980   42.7397    8.4586 C.ar    1  UNL1        0.0045
     25 C          17.7918   43.9247    7.7827 C.ar    1  UNL1        0.0208
     26 C          16.8751   44.4242    6.8557 C.ar    1  UNL1        0.1003
     27 N          15.7127   43.7582    6.6200 N.ar    1  UNL1       -0.2290
@<TRIPOS>BOND
     1     1     2    1
     2     2     7   ar
     3     3     4   ar
     4     4    20    1
     5     5     6   ar
     6     8     5    1
     7     8     9    1
     8     9    10    1
     9    10    11    1
    10    11    13    1
    11    12    13    1
    12    12     8    1
    13    14    19   ar
    14    15    18   ar
    15    16    17   ar
    16    22    27   ar
    17    23    24   ar
    18    25    26   ar
    19    13    14    1
    20    20    22    1
    21     2     3   ar
    22     4     6   ar
    23     5     7   ar
    24    14    18   ar
    25    15    16   ar
    26    17    19   ar
    27    22    23   ar
    28    24    25   ar
    29    26    27   ar
    30    20    21    1
@<TRIPOS>MOLECULE
MolPort-020-278-652 MCULE-3701403446 PubChem-110255524
 27 30 0 0 0
SMALL
GASTEIGER

@<TRIPOS>ATOM
      1 C          13.7378   39.2636   11.1384 C.3     1  UNL1        0.0522
      2 C          12.9314   40.1842   10.2957 C.ar    1  UNL1        0.0635
      3 C          13.4232   40.6129    9.0648 C.ar    1  UNL1        0.0492
      4 C          12.6420   41.4793    8.2927 C.ar    1  UNL1        0.1357
      5 C          10.9631   41.4510    9.9661 C.ar    1  UNL1        0.1414
      6 N          11.4301   41.8771    8.7628 N.ar    1  UNL1       -0.2159
      7 N          11.7151   40.6077   10.7248 N.ar    1  UNL1       -0.2348
      8 C           9.6256   41.9123   10.4412 C.3     1  UNL1        0.0785
      9 C           9.3075   41.3228   11.8168 C.3     1  UNL1        0.0110
     10 C           7.9389   41.8013   12.2972 C.3     1  UNL1        0.0220
     11 C           6.8647   41.4054   11.2888 C.3     1  UNL1        0.0936
     12 C           8.5397   41.5401    9.4319 C.3     1  UNL1        0.1011
     13 N           7.2315   41.9065    9.9669 N.pl3   1  UNL1       -0.2778
     14 C           6.3451   42.7583    9.2280 C.ar    1  UNL1        0.2202
     15 C           4.1880   43.6861    8.9173 C.ar    1  UNL1        0.1034
     16 C           4.6393   44.3942    7.8054 C.ar    1  UNL1        0.0414
     17 C           5.9740   44.2551    7.4302 C.ar    1  UNL1        0.1034
     18 N           5.0426   42.8852    9.6055 N.ar    1  UNL1       -0.2121
     19 N           6.7991   43.4449    8.1429 N.ar    1  UNL1       -0.2121
     20 N          13.0817   41.9625    7.0152 N.pl3   1  UNL1       -0.2833
     21 H          12.6085   41.6069    6.2286 H       1  UNL1        0.1550
     22 C          14.1312   42.9038    6.7526 C.ar    1  UNL1        0.1332
     23 C          15.4083   42.6532    7.2620 C.ar    1  UNL1        0.0345
     24 C          16.4380   43.5623    7.0129 C.ar    1  UNL1        0.0045
     25 C          16.1852   44.7099    6.2603 C.ar    1  UNL1        0.0208
     26 C          14.8979   44.9295    5.7665 C.ar    1  UNL1        0.1003
     27 N          13.9083   44.0315    6.0202 N.ar    1  UNL1       -0.2290
@<TRIPOS>BOND
     1     1     2    1
     2     2     7   ar
     3     3     4   ar
     4     4    20    1
     5     5     6   ar
     6     8     5    1
     7     8     9    1
     8     9    10    1
     9    10    11    1
    10    11    13    1
    11    12    13    1
    12    12     8    1
    13    14    19   ar
    14    15    18   ar
    15    16    17   ar
    16    22    27   ar
    17    23    24   ar
    18    25    26   ar
    19    13    14    1
    20    20    22    1
    21     2     3   ar
    22     4     6   ar
    23     5     7   ar
    24    14    18   ar
    25    15    16   ar
    26    17    19   ar
    27    22    23   ar
    28    24    25   ar
    29    26    27   ar
    30    20    21    1
@<TRIPOS>MOLECULE
MolPort-020-278-652 MCULE-3701403446 PubChem-110255524
 27 30 0 0 0
SMALL
GASTEIGER

@<TRIPOS>ATOM
      1 C          10.0443   40.1381    6.4095 C.3     1  UNL1        0.0522
      2 C          11.3622   40.5436    6.9630 C.ar    1  UNL1        0.0635
      3 C          11.9457   41.7443    6.5646 C.ar    1  UNL1        0.0492
      4 C          13.1870   42.1005    7.1025 C.ar    1  UNL1        0.1357
      5 C          13.2059   40.1001    8.3744 C.ar    1  UNL1        0.1414
      6 N          13.7869   41.2689    7.9951 N.ar    1  UNL1       -0.2159
      7 N          11.9983   39.7445    7.8574 N.ar    1  UNL1       -0.2348
      8 C          13.9003   39.2191    9.3588 C.3     1  UNL1        0.0785
      9 C          13.0814   39.0948   10.6452 C.3     1  UNL1        0.0110
     10 C          13.7970   38.1900   11.6462 C.3     1  UNL1        0.0220
     11 C          15.1845   38.7457   11.9520 C.3     1  UNL1        0.0936
     12 C          15.3007   39.7519    9.6616 C.3     1  UNL1        0.1011
     13 N          15.9175   38.9354   10.7032 N.pl3   1  UNL1       -0.2778
     14 C          17.1930   38.3136   10.4938 C.ar    1  UNL1        0.2202
     15 C          19.2858   38.2644    9.3856 C.ar    1  UNL1        0.1034
     16 C          19.6450   37.1163   10.0887 C.ar    1  UNL1        0.0414
     17 C          18.7342   36.5882   11.0016 C.ar    1  UNL1        0.1034
     18 N          18.0739   38.8401    9.5983 N.ar    1  UNL1       -0.2121
     19 N          17.5315   37.1916   11.1876 N.ar    1  UNL1       -0.2121
     20 N          13.8488   43.3209    6.7403 N.pl3   1  UNL1       -0.2833
     21 H          13.2727   44.0469    6.4081 H       1  UNL1        0.1550
     22 C          15.2529   43.6049    6.8066 C.ar    1  UNL1        0.1332
     23 C          15.9656   43.7766    5.6167 C.ar    1  UNL1        0.0345
     24 C          17.3329   44.0533    5.6685 C.ar    1  UNL1        0.0045
     25 C          17.9751   44.1559    6.9032 C.ar    1  UNL1        0.0208
     26 C          17.2332   43.9786    8.0725 C.ar    1  UNL1        0.1003
     27 N          15.9017   43.7096    8.0007 N.ar    1  UNL1       -0.2290
@<TRIPOS>BOND
     1     1     2    1
     2     2     7   ar
     3     3     4   ar
     4     4    20    1
     5     5     6   ar
     6     8     5    1
     7     8     9    1
     8     9    10    1
     9    10    11    1
    10    11    13    1
    11    12    13    1
    12    12     8    1
    13    14    19   ar
    14    15    18   ar
    15    16    17   ar
    16    22    27   ar
    17    23    24   ar
    18    25    26   ar
    19    13    14    1
    20    20    22    1
    21     2     3   ar
    22     4     6   ar
    23     5     7   ar
    24    14    18   ar
    25    15    16   ar
    26    17    19   ar
    27    22    23   ar
    28    24    25   ar
    29    26    27   ar
    30    20    21    1
@<TRIPOS>MOLECULE
MolPort-020-278-652 MCULE-3701403446 PubChem-110255524
 27 30 0 0 0
SMALL
GASTEIGER

@<TRIPOS>ATOM
      1 C          10.0845   41.2320   12.7843 C.3     1  UNL1        0.0522
      2 C           9.3963   41.5408   11.5042 C.ar    1  UNL1        0.0635
      3 C           8.0149   41.7200   11.4813 C.ar    1  UNL1        0.0492
      4 C           7.3938   42.0100   10.2618 C.ar    1  UNL1        0.1357
      5 C           9.4992   41.9308    9.1750 C.ar    1  UNL1        0.1414
      6 N           8.1521   42.1086    9.1377 N.ar    1  UNL1       -0.2159
      7 N          10.1131   41.6487   10.3563 N.ar    1  UNL1       -0.2348
      8 C          10.2918   42.0503    7.9161 C.3     1  UNL1        0.0785
      9 C           9.7445   41.1093    6.8409 C.3     1  UNL1        0.0110
     10 C          10.5589   41.2392    5.5554 C.3     1  UNL1        0.0220
     11 C          12.0264   40.9296    5.8345 C.3     1  UNL1        0.0936
     12 C          11.7691   41.7618    8.1825 C.3     1  UNL1        0.1011
     13 N          12.5040   41.7806    6.9209 N.pl3   1  UNL1       -0.2778
     14 C          13.6441   42.6329    6.7447 C.ar    1  UNL1        0.2202
     15 C          14.6005   44.6106    5.8588 C.ar    1  UNL1        0.1034
     16 C          15.8373   44.2710    6.4032 C.ar    1  UNL1        0.0414
     17 C          15.9384   43.0830    7.1245 C.ar    1  UNL1        0.1034
     18 N          13.5316   43.7914    6.0374 N.ar    1  UNL1       -0.2121
     19 N          14.8475   42.2891    7.2821 N.ar    1  UNL1       -0.2121
     20 N           5.9764   42.2078   10.1603 N.pl3   1  UNL1       -0.2833
     21 H           5.4144   41.6323   10.7280 H       1  UNL1        0.1550
     22 C           5.2841   43.1474    9.3270 C.ar    1  UNL1        0.1332
     23 C           6.0271   43.9960    8.5017 C.ar    1  UNL1        0.0345
     24 C           5.3643   44.9149    7.6862 C.ar    1  UNL1        0.0045
     25 C           3.9704   44.9789    7.7012 C.ar    1  UNL1        0.0208
     26 C           3.2589   44.1167    8.5376 C.ar    1  UNL1        0.1003
     27 N           3.9235   43.2283    9.3247 N.ar    1  UNL1       -0.2290
@<TRIPOS>BOND
     1     1     2    1
     2     2     7   ar
     3     3     4   ar
     4     4    20    1
     5     5     6   ar
     6     8     5    1
     7     8     9    1
     8     9    10    1
     9    10    11    1
    10    11    13    1
    11    12    13    1
    12    12     8    1
    13    14    19   ar
    14    15    18   ar
    15    16    17   ar
    16    22    27   ar
    17    23    24   ar
    18    25    26   ar
    19    13    14    1
    20    20    22    1
    21     2     3   ar
    22     4     6   ar
    23     5     7   ar
    24    14    18   ar
    25    15    16   ar
    26    17    19   ar
    27    22    23   ar
    28    24    25   ar
    29    26    27   ar
    30    20    21    1
@<TRIPOS>MOLECULE
MolPort-020-278-652 MCULE-3701403446 PubChem-110255524
 27 30 0 0 0
SMALL
GASTEIGER

@<TRIPOS>ATOM
      1 C          15.4302   44.3373    5.5011 C.3     1  UNL1        0.0522
      2 C          15.2156   43.2787    6.5215 C.ar    1  UNL1        0.0635
      3 C          16.2821   42.8354    7.3005 C.ar    1  UNL1        0.0492
      4 C          16.0505   41.8378    8.2535 C.ar    1  UNL1        0.1357
      5 C          13.7656   41.7729    7.6251 C.ar    1  UNL1        0.1414
      6 N          14.7967   41.3309    8.3925 N.ar    1  UNL1       -0.2159
      7 N          13.9802   42.7433    6.6953 N.ar    1  UNL1       -0.2348
      8 C          12.4053   41.1887    7.8137 C.3     1  UNL1        0.0785
      9 C          11.8245   40.7271    6.4755 C.3     1  UNL1        0.0110
     10 C          10.4340   40.1283    6.6771 C.3     1  UNL1        0.0220
     11 C           9.5136   41.1557    7.3290 C.3     1  UNL1        0.0936
     12 C          11.4752   42.1996    8.4841 C.3     1  UNL1        0.1011
     13 N          10.1270   41.6444    8.5610 N.pl3   1  UNL1       -0.2778
     14 C           9.4373   41.5544    9.8154 C.ar    1  UNL1        0.2202
     15 C           7.4241   41.6925   11.0558 C.ar    1  UNL1        0.1034
     16 C           8.1110   41.3843   12.2283 C.ar    1  UNL1        0.0414
     17 C           9.4848   41.1643   12.1512 C.ar    1  UNL1        0.1034
     18 N           8.0941   41.7719    9.8768 N.ar    1  UNL1       -0.2121
     19 N          10.1208   41.2525   10.9542 N.ar    1  UNL1       -0.2121
     20 N          17.0988   41.3316    9.0922 N.pl3   1  UNL1       -0.2833
     21 H          17.8898   41.9084    9.1969 H       1  UNL1        0.1550
     22 C          17.1270   40.0820    9.7953 C.ar    1  UNL1        0.1332
     23 C          15.9770   39.6566   10.4659 C.ar    1  UNL1        0.0345
     24 C          15.9924   38.4421   11.1539 C.ar    1  UNL1        0.0045
     25 C          17.1515   37.6651   11.1669 C.ar    1  UNL1        0.0208
     26 C          18.2828   38.1199   10.4867 C.ar    1  UNL1        0.1003
     27 N          18.2474   39.3062    9.8222 N.ar    1  UNL1       -0.2290
@<TRIPOS>BOND
     1     1     2    1
     2     2     7   ar
     3     3     4   ar
     4     4    20    1
     5     5     6   ar
     6     8     5    1
     7     8     9    1
     8     9    10    1
     9    10    11    1
    10    11    13    1
    11    12    13    1
    12    12     8    1
    13    14    19   ar
    14    15    18   ar
    15    16    17   ar
    16    22    27   ar
    17    23    24   ar
    18    25    26   ar
    19    13    14    1
    20    20    22    1
    21     2     3   ar
    22     4     6   ar
    23     5     7   ar
    24    14    18   ar
    25    15    16   ar
    26    17    19   ar
    27    22    23   ar
    28    24    25   ar
    29    26    27   ar
    30    20    21    1
@<TRIPOS>MOLECULE
MolPort-020-278-652 MCULE-3701403446 PubChem-110255524
 27 30 0 0 0
SMALL
GASTEIGER

@<TRIPOS>ATOM
      1 C           8.7642   40.2439    6.3625 C.3     1  UNL1        0.0522
      2 C           8.2196   40.6884    7.6715 C.ar    1  UNL1        0.0635
      3 C           9.0728   41.2159    8.6382 C.ar    1  UNL1        0.0492
      4 C           8.5321   41.6265    9.8614 C.ar    1  UNL1        0.1357
      5 C           6.3745   40.9830    9.1195 C.ar    1  UNL1        0.1414
      6 N           7.1950   41.5000   10.0719 N.ar    1  UNL1       -0.2159
      7 N           6.8904   40.5810    7.9260 N.ar    1  UNL1       -0.2348
      8 C           4.9122   40.8647    9.3938 C.3     1  UNL1        0.0785
      9 C           4.1299   40.6894    8.0906 C.3     1  UNL1        0.0110
     10 C           2.6352   40.5665    8.3797 C.3     1  UNL1        0.0220
     11 C           2.1462   41.8013    9.1303 C.3     1  UNL1        0.0936
     12 C           4.4098   42.0862   10.1631 C.3     1  UNL1        0.1011
     13 N           2.9615   41.9972   10.3260 N.pl3   1  UNL1       -0.2778
     14 C           2.3602   42.0701   11.6261 C.ar    1  UNL1        0.2202
     15 C           0.6980   42.9555   13.0628 C.ar    1  UNL1        0.1034
     16 C           1.2050   42.2128   14.1272 C.ar    1  UNL1        0.0414
     17 C           2.3103   41.3963   13.8963 C.ar    1  UNL1        0.1034
     18 N           1.2801   42.8724   11.8382 N.ar    1  UNL1       -0.2121
     19 N           2.8658   41.3390   12.6580 N.ar    1  UNL1       -0.2121
     20 N           9.3478   42.1794   10.9042 N.pl3   1  UNL1       -0.2833
     21 H           9.9504   42.9130   10.6433 H       1  UNL1        0.1550
     22 C           9.3863   41.7865   12.2828 C.ar    1  UNL1        0.1332
     23 C          10.5767   41.2763   12.8082 C.ar    1  UNL1        0.0345
     24 C          10.6263   40.8903   14.1488 C.ar    1  UNL1        0.0045
     25 C           9.4914   41.0163   14.9509 C.ar    1  UNL1        0.0208
     26 C           8.3186   41.5297   14.3942 C.ar    1  UNL1        0.1003
     27 N           8.2907   41.9001   13.0856 N.ar    1  UNL1       -0.2290
@<TRIPOS>BOND
     1     1     2    1
     2     2     7   ar
     3     3     4   ar
     4     4    20    1
     5     5     6   ar
     6     8     5    1
     7     8     9    1
     8     9    10    1
     9    10    11    1
    10    11    13    1
    11    12    13    1
    12    12     8    1
    13    14    19   ar
    14    15    18   ar
    15    16    17   ar
    16    22    27   ar
    17    23    24   ar
    18    25    26   ar
    19    13    14    1
    20    20    22    1
    21     2     3   ar
    22     4     6   ar
    23     5     7   ar
    24    14    18   ar
    25    15    16   ar
    26    17    19   ar
    27    22    23   ar
    28    24    25   ar
    29    26    27   ar
    30    20    21    1
