@<TRIPOS>MOLECULE
MolPort-007-723-581 6818374 ChemDiv-E157-6421 MCULE-1653935554 PubChem-22518106 ZINC000006818374 ZINC06818374
 24 25 0 0 0
SMALL
GASTEIGER

@<TRIPOS>ATOM
      1 C          12.1670   41.7297    8.3020 C.ar    1  UNL1        0.1893
      2 C           9.9599   42.1600    9.1040 C.ar    1  UNL1        0.2593
      3 N          11.2803   40.7737    7.9461 N.ar    1  UNL1       -0.1239
      4 N          10.0498   41.0142    8.3947 N.ar    1  UNL1       -0.1187
      5 S          11.4454   42.9466    9.2124 S.2     1  UNL1       -0.0102
      6 C          14.2351   42.7505    7.2406 C.2     1  UNL1        0.2276
      7 O          13.6183   43.7876    6.8715 O.2     1  UNL1       -0.2747
      8 N          13.5546   41.7127    7.9528 N.am    1  UNL1       -0.2627
      9 H          14.0816   40.9263    8.2234 H       1  UNL1        0.1568
     10 C          15.6969   42.5808    6.9506 C.3     1  UNL1        0.0854
     11 C          17.4547   43.5938    8.4046 C.3     1  UNL1        0.0005
     12 C          16.5453   42.3964    8.2025 C.3     1  UNL1        0.0096
     13 O           8.6027   42.6309   11.3332 O.2     1  UNL1       -0.1477
     14 O           8.2433   44.1710    9.4664 O.2     1  UNL1       -0.1477
     15 S           8.4769   42.7336    9.8388 S.O2    1  UNL1        0.1010
     16 C           7.3581   40.8894    8.1465 C.3     1  UNL1        0.1392
     17 N           7.1381   41.7733    9.2831 N.pl3   1  UNL1       -0.1870
     18 C           5.8397   41.8568    9.9046 C.ar    1  UNL1        0.0689
     19 C           5.5436   41.0912   11.0454 C.ar    1  UNL1        0.0158
     20 C           4.2845   41.1670   11.6476 C.ar    1  UNL1       -0.0029
     21 C           3.3059   42.0098   11.1161 C.ar    1  UNL1       -0.0218
     22 C           1.9670   42.0903   11.7558 C.3     1  UNL1        0.0310
     23 C           3.5861   42.7771    9.9834 C.ar    1  UNL1       -0.0029
     24 C           4.8453   42.7008    9.3822 C.ar    1  UNL1        0.0158
@<TRIPOS>BOND
     1    11    12    1
     2    12    10    1
     3    10     6    1
     4     6     8   am
     5     1     5   ar
     6     2     5   ar
     7    16    17    1
     8    19    20   ar
     9    21    23   ar
    10    22    21    1
    11    24    18   ar
    12     8     1    1
    13     3     4   ar
    14    17    18    1
    15    15     2    1
    16    15    17    1
    17     6     7    2
    18     1     3   ar
    19     2     4   ar
    20    18    19   ar
    21    20    21   ar
    22    23    24   ar
    23    15    13    2
    24    15    14    2
    25     8     9    1
@<TRIPOS>MOLECULE
MolPort-007-723-581 6818374 ChemDiv-E157-6421 MCULE-1653935554 PubChem-22518106 ZINC000006818374 ZINC06818374
 24 25 0 0 0
SMALL
GASTEIGER

@<TRIPOS>ATOM
      1 C           6.6384   42.4086    8.6302 C.ar    1  UNL1        0.1893
      2 C           9.0127   42.3875    8.8793 C.ar    1  UNL1        0.2593
      3 N           7.2919   42.2997    7.4521 N.ar    1  UNL1       -0.1239
      4 N           8.6161   42.2889    7.5920 N.ar    1  UNL1       -0.1187
      5 S           7.7016   42.4990    9.9309 S.2     1  UNL1       -0.0102
      6 C           4.4167   41.4215    9.3618 C.2     1  UNL1        0.2276
      7 O           4.9553   40.3830    9.8349 O.2     1  UNL1       -0.2747
      8 N           5.2140   42.4469    8.7616 N.am    1  UNL1       -0.2627
      9 H           4.7467   43.2399    8.4122 H       1  UNL1        0.1568
     10 C           2.9303   41.6129    9.4223 C.3     1  UNL1        0.0854
     11 C           3.2078   41.6188   11.9027 C.3     1  UNL1        0.0005
     12 C           2.4507   42.2211   10.7341 C.3     1  UNL1        0.0096
     13 O          11.5631   42.2423    8.1669 O.2     1  UNL1       -0.1477
     14 O          11.0097   43.7422   10.0190 O.2     1  UNL1       -0.1477
     15 S          10.6913   42.4202    9.3786 S.O2    1  UNL1        0.1010
     16 C          10.3985   41.2665   11.8485 C.3     1  UNL1        0.1392
     17 N          10.9874   41.1440   10.5219 N.pl3   1  UNL1       -0.1870
     18 C          11.8073   40.0060   10.1875 C.ar    1  UNL1        0.0689
     19 C          13.1897   40.0229   10.4405 C.ar    1  UNL1        0.0158
     20 C          13.9876   38.9228   10.1137 C.ar    1  UNL1       -0.0029
     21 C          13.4126   37.7919    9.5299 C.ar    1  UNL1       -0.0218
     22 C          14.2607   36.6224    9.1820 C.3     1  UNL1        0.0310
     23 C          12.0401   37.7605    9.2735 C.ar    1  UNL1       -0.0029
     24 C          11.2432   38.8608    9.6008 C.ar    1  UNL1        0.0158
@<TRIPOS>BOND
     1    11    12    1
     2    12    10    1
     3    10     6    1
     4     6     8   am
     5     1     5   ar
     6     2     5   ar
     7    16    17    1
     8    19    20   ar
     9    21    23   ar
    10    22    21    1
    11    24    18   ar
    12     8     1    1
    13     3     4   ar
    14    17    18    1
    15    15     2    1
    16    15    17    1
    17     6     7    2
    18     1     3   ar
    19     2     4   ar
    20    18    19   ar
    21    20    21   ar
    22    23    24   ar
    23    15    13    2
    24    15    14    2
    25     8     9    1
@<TRIPOS>MOLECULE
MolPort-007-723-581 6818374 ChemDiv-E157-6421 MCULE-1653935554 PubChem-22518106 ZINC000006818374 ZINC06818374
 24 25 0 0 0
SMALL
GASTEIGER

@<TRIPOS>ATOM
      1 C          12.3201   41.2387    6.7698 C.ar    1  UNL1        0.1893
      2 C          10.2246   40.2676    6.1653 C.ar    1  UNL1        0.2593
      3 N          11.6313   41.9833    5.8765 N.ar    1  UNL1       -0.1239
      4 N          10.4631   41.4403    5.5393 N.ar    1  UNL1       -0.1187
      5 S          11.4893   39.8379    7.1915 S.2     1  UNL1       -0.0102
      6 C          14.4666   42.5943    6.7488 C.2     1  UNL1        0.2276
      7 O          14.1209   43.2549    5.7308 O.2     1  UNL1       -0.2747
      8 N          13.6036   41.5920    7.2947 N.am    1  UNL1       -0.2627
      9 H          13.9169   41.1083    8.0928 H       1  UNL1        0.1568
     10 C          15.7853   42.8461    7.4178 C.3     1  UNL1        0.0854
     11 C          17.5835   43.8066    5.9779 C.3     1  UNL1        0.0005
     12 C          16.4659   44.1272    6.9523 C.3     1  UNL1        0.0096
     13 O           8.6440   39.0140    4.4439 O.2     1  UNL1       -0.1477
     14 O           8.8927   38.0085    6.6604 O.2     1  UNL1       -0.1477
     15 S           8.7818   39.3072    5.9118 S.O2    1  UNL1        0.1010
     16 C           6.0734   39.6248    6.1963 C.3     1  UNL1        0.1392
     17 N           7.3897   40.1795    6.4815 N.pl3   1  UNL1       -0.1870
     18 C           7.5196   41.4258    7.1950 C.ar    1  UNL1        0.0689
     19 C           8.0152   41.4473    8.5100 C.ar    1  UNL1        0.0158
     20 C           8.1384   42.6535    9.2056 C.ar    1  UNL1       -0.0029
     21 C           7.7675   43.8531    8.5943 C.ar    1  UNL1       -0.0218
     22 C           7.8979   45.1355    9.3337 C.3     1  UNL1        0.0310
     23 C           7.2743   43.8471    7.2877 C.ar    1  UNL1       -0.0029
     24 C           7.1517   42.6408    6.5931 C.ar    1  UNL1        0.0158
@<TRIPOS>BOND
     1    11    12    1
     2    12    10    1
     3    10     6    1
     4     6     8   am
     5     1     5   ar
     6     2     5   ar
     7    16    17    1
     8    19    20   ar
     9    21    23   ar
    10    22    21    1
    11    24    18   ar
    12     8     1    1
    13     3     4   ar
    14    17    18    1
    15    15     2    1
    16    15    17    1
    17     6     7    2
    18     1     3   ar
    19     2     4   ar
    20    18    19   ar
    21    20    21   ar
    22    23    24   ar
    23    15    13    2
    24    15    14    2
    25     8     9    1
@<TRIPOS>MOLECULE
MolPort-007-723-581 6818374 ChemDiv-E157-6421 MCULE-1653935554 PubChem-22518106 ZINC000006818374 ZINC06818374
 24 25 0 0 0
SMALL
GASTEIGER

@<TRIPOS>ATOM
      1 C          11.1293   39.7237   10.0668 C.ar    1  UNL1        0.1893
      2 C          13.2511   38.6551    9.8304 C.ar    1  UNL1        0.2593
      3 N          11.2390   39.0156    8.9208 N.ar    1  UNL1       -0.1239
      4 N          12.4231   38.4208    8.7895 N.ar    1  UNL1       -0.1187
      5 S          12.5323   39.6414   10.9915 S.2     1  UNL1       -0.0102
      6 C           9.4299   41.5816    9.7412 C.2     1  UNL1        0.2276
      7 O           9.9817   41.9952    8.6845 O.2     1  UNL1       -0.2747
      8 N           9.9642   40.4601   10.4513 N.am    1  UNL1       -0.2627
      9 H           9.4939   40.1729   11.2672 H       1  UNL1        0.1568
     10 C           8.1972   42.2476   10.2768 C.3     1  UNL1        0.0854
     11 C           6.1641   41.3265   11.3938 C.3     1  UNL1        0.0005
     12 C           7.6515   41.5882   11.5371 C.3     1  UNL1        0.0096
     13 O          14.9392   37.0043   11.0378 O.2     1  UNL1       -0.1477
     14 O          15.2603   37.3642    8.6392 O.2     1  UNL1       -0.1477
     15 S          14.8819   38.0246    9.9354 S.O2    1  UNL1        0.1010
     16 C          16.8072   39.2358   11.4662 C.3     1  UNL1        0.1392
     17 N          15.9919   39.3224   10.2622 N.pl3   1  UNL1       -0.1870
     18 C          16.0955   40.4653    9.3891 C.ar    1  UNL1        0.0689
     19 C          14.9828   40.9022    8.6500 C.ar    1  UNL1        0.0158
     20 C          15.0813   42.0073    7.7997 C.ar    1  UNL1       -0.0029
     21 C          16.2941   42.6891    7.6784 C.ar    1  UNL1       -0.0218
     22 C          16.3992   43.8637    6.7742 C.3     1  UNL1        0.0310
     23 C          17.4079   42.2668    8.4074 C.ar    1  UNL1       -0.0029
     24 C          17.3084   41.1621    9.2573 C.ar    1  UNL1        0.0158
@<TRIPOS>BOND
     1    11    12    1
     2    12    10    1
     3    10     6    1
     4     6     8   am
     5     1     5   ar
     6     2     5   ar
     7    16    17    1
     8    19    20   ar
     9    21    23   ar
    10    22    21    1
    11    24    18   ar
    12     8     1    1
    13     3     4   ar
    14    17    18    1
    15    15     2    1
    16    15    17    1
    17     6     7    2
    18     1     3   ar
    19     2     4   ar
    20    18    19   ar
    21    20    21   ar
    22    23    24   ar
    23    15    13    2
    24    15    14    2
    25     8     9    1
@<TRIPOS>MOLECULE
MolPort-007-723-581 6818374 ChemDiv-E157-6421 MCULE-1653935554 PubChem-22518106 ZINC000006818374 ZINC06818374
 24 25 0 0 0
SMALL
GASTEIGER

@<TRIPOS>ATOM
      1 C          10.9754   39.4230    9.8297 C.ar    1  UNL1        0.1893
      2 C          13.0463   38.5334   10.6169 C.ar    1  UNL1        0.2593
      3 N          11.2642   38.2122    9.3029 N.ar    1  UNL1       -0.1239
      4 N          12.4199   37.7174    9.7418 N.ar    1  UNL1       -0.1187
      5 S          12.1716   39.9468   10.8903 S.2     1  UNL1       -0.0102
      6 C           9.7242   41.2299    8.5588 C.2     1  UNL1        0.2276
      7 O          10.7423   41.5625    7.8917 O.2     1  UNL1       -0.2747
      8 N           9.7975   40.1755    9.5233 N.am    1  UNL1       -0.2627
      9 H           8.9741   39.9504   10.0139 H       1  UNL1        0.1568
     10 C           8.4102   41.9238    8.3544 C.3     1  UNL1        0.0854
     11 C           7.6164   40.3025    6.6307 C.3     1  UNL1        0.0005
     12 C           7.2848   40.9816    7.9461 C.3     1  UNL1        0.0096
     13 O          14.7636   39.0158   12.5794 O.2     1  UNL1       -0.1477
     14 O          14.6399   36.7173   11.7502 O.2     1  UNL1       -0.1477
     15 S          14.5935   38.1657   11.3513 S.O2    1  UNL1        0.1010
     16 C          16.8498   37.4371    9.9746 C.3     1  UNL1        0.1392
     17 N          15.8717   38.4888   10.2176 N.pl3   1  UNL1       -0.1870
     18 C          15.9845   39.7616    9.5495 C.ar    1  UNL1        0.0689
     19 C          14.8994   40.2877    8.8278 C.ar    1  UNL1        0.0158
     20 C          15.0071   41.5194    8.1757 C.ar    1  UNL1       -0.0029
     21 C          16.2018   42.2401    8.2376 C.ar    1  UNL1       -0.0218
     22 C          16.3168   43.5493    7.5442 C.3     1  UNL1        0.0310
     23 C          17.2881   41.7301    8.9518 C.ar    1  UNL1       -0.0029
     24 C          17.1793   40.4988    9.6035 C.ar    1  UNL1        0.0158
@<TRIPOS>BOND
     1    11    12    1
     2    12    10    1
     3    10     6    1
     4     6     8   am
     5     1     5   ar
     6     2     5   ar
     7    16    17    1
     8    19    20   ar
     9    21    23   ar
    10    22    21    1
    11    24    18   ar
    12     8     1    1
    13     3     4   ar
    14    17    18    1
    15    15     2    1
    16    15    17    1
    17     6     7    2
    18     1     3   ar
    19     2     4   ar
    20    18    19   ar
    21    20    21   ar
    22    23    24   ar
    23    15    13    2
    24    15    14    2
    25     8     9    1
@<TRIPOS>MOLECULE
MolPort-007-723-581 6818374 ChemDiv-E157-6421 MCULE-1653935554 PubChem-22518106 ZINC000006818374 ZINC06818374
 24 25 0 0 0
SMALL
GASTEIGER

@<TRIPOS>ATOM
      1 C           7.8267   42.2646    9.2145 C.ar    1  UNL1        0.1893
      2 C          10.0027   41.4164    8.7192 C.ar    1  UNL1        0.2593
      3 N           8.2122   42.5103    7.9426 N.ar    1  UNL1       -0.1239
      4 N           9.4263   42.0377    7.6676 N.ar    1  UNL1       -0.1187
      5 S           9.0053   41.4290   10.0765 S.2     1  UNL1       -0.0102
      6 C           5.2998   42.1154    9.4098 C.2     1  UNL1        0.2276
      7 O           5.2184   41.1959    8.5497 O.2     1  UNL1       -0.2747
      8 N           6.5703   42.6674    9.7684 N.am    1  UNL1       -0.2627
      9 H           6.5809   43.3792   10.4485 H       1  UNL1        0.1568
     10 C           4.0708   42.6488   10.0844 C.3     1  UNL1        0.0854
     11 C           4.1711   40.5552   11.4395 C.3     1  UNL1        0.0005
     12 C           3.2537   41.5750   10.7916 C.3     1  UNL1        0.0096
     13 O          12.3751   41.1682    9.8781 O.2     1  UNL1       -0.1477
     14 O          11.5047   39.2106    8.6965 O.2     1  UNL1       -0.1477
     15 S          11.6049   40.7101    8.6711 S.O2    1  UNL1        0.1010
     16 C          11.7858   40.8998    5.9420 C.3     1  UNL1        0.1392
     17 N          12.4200   41.2051    7.2172 N.pl3   1  UNL1       -0.1870
     18 C          13.6952   41.8770    7.2580 C.ar    1  UNL1        0.0689
     19 C          14.7265   41.4018    8.0862 C.ar    1  UNL1        0.0158
     20 C          15.9623   42.0534    8.1308 C.ar    1  UNL1       -0.0029
     21 C          16.1818   43.1885    7.3473 C.ar    1  UNL1       -0.0218
     22 C          17.4954   43.8817    7.3949 C.3     1  UNL1        0.0310
     23 C          15.1666   43.6716    6.5189 C.ar    1  UNL1       -0.0029
     24 C          13.9316   43.0193    6.4749 C.ar    1  UNL1        0.0158
@<TRIPOS>BOND
     1    11    12    1
     2    12    10    1
     3    10     6    1
     4     6     8   am
     5     1     5   ar
     6     2     5   ar
     7    16    17    1
     8    19    20   ar
     9    21    23   ar
    10    22    21    1
    11    24    18   ar
    12     8     1    1
    13     3     4   ar
    14    17    18    1
    15    15     2    1
    16    15    17    1
    17     6     7    2
    18     1     3   ar
    19     2     4   ar
    20    18    19   ar
    21    20    21   ar
    22    23    24   ar
    23    15    13    2
    24    15    14    2
    25     8     9    1
@<TRIPOS>MOLECULE
MolPort-007-723-581 6818374 ChemDiv-E157-6421 MCULE-1653935554 PubChem-22518106 ZINC000006818374 ZINC06818374
 24 25 0 0 0
SMALL
GASTEIGER

@<TRIPOS>ATOM
      1 C           9.3833   42.1429    9.8461 C.ar    1  UNL1        0.1893
      2 C          11.4038   42.3471    8.5910 C.ar    1  UNL1        0.2593
      3 N          10.1696   43.1560   10.2727 N.ar    1  UNL1       -0.1239
      4 N          11.2967   43.2685    9.5726 N.ar    1  UNL1       -0.1187
      5 S          10.0690   41.3205    8.5485 S.2     1  UNL1       -0.0102
      6 C           6.8458   42.0625    9.8298 C.2     1  UNL1        0.2276
      7 O           6.7663   42.6258    8.7035 O.2     1  UNL1       -0.2747
      8 N           8.1202   41.8031   10.4265 N.am    1  UNL1       -0.2627
      9 H           8.1287   41.3565   11.3038 H       1  UNL1        0.1568
     10 C           5.6099   41.6433   10.5692 C.3     1  UNL1        0.0854
     11 C           3.1229   41.8029   10.7072 C.3     1  UNL1        0.0005
     12 C           4.3900   42.4953   10.2421 C.3     1  UNL1        0.0096
     13 O          12.3389   41.5988    6.2248 O.2     1  UNL1       -0.1477
     14 O          13.3259   43.6003    7.2279 O.2     1  UNL1       -0.1477
     15 S          12.7816   42.2290    7.5158 S.O2    1  UNL1        0.1010
     16 C          15.4042   41.7069    8.1212 C.3     1  UNL1        0.1392
     17 N          14.0232   41.2644    8.2583 N.pl3   1  UNL1       -0.1870
     18 C          13.7112   40.0501    8.9706 C.ar    1  UNL1        0.0689
     19 C          13.9017   39.9688   10.3607 C.ar    1  UNL1        0.0158
     20 C          13.6040   38.7918   11.0533 C.ar    1  UNL1       -0.0029
     21 C          13.1118   37.6814   10.3638 C.ar    1  UNL1       -0.0218
     22 C          12.7956   36.4298   11.0998 C.3     1  UNL1        0.0310
     23 C          12.9166   37.7479    8.9826 C.ar    1  UNL1       -0.0029
     24 C          13.2143   38.9252    8.2912 C.ar    1  UNL1        0.0158
@<TRIPOS>BOND
     1    11    12    1
     2    12    10    1
     3    10     6    1
     4     6     8   am
     5     1     5   ar
     6     2     5   ar
     7    16    17    1
     8    19    20   ar
     9    21    23   ar
    10    22    21    1
    11    24    18   ar
    12     8     1    1
    13     3     4   ar
    14    17    18    1
    15    15     2    1
    16    15    17    1
    17     6     7    2
    18     1     3   ar
    19     2     4   ar
    20    18    19   ar
    21    20    21   ar
    22    23    24   ar
    23    15    13    2
    24    15    14    2
    25     8     9    1
@<TRIPOS>MOLECULE
MolPort-007-723-581 6818374 ChemDiv-E157-6421 MCULE-1653935554 PubChem-22518106 ZINC000006818374 ZINC06818374
 24 25 0 0 0
SMALL
GASTEIGER

@<TRIPOS>ATOM
      1 C           6.2594   40.5243    7.2797 C.ar    1  UNL1        0.1893
      2 C           8.4787   40.3684    6.4133 C.ar    1  UNL1        0.2593
      3 N           6.3268   39.8290    6.1226 N.ar    1  UNL1       -0.1239
      4 N           7.5649   39.7434    5.6398 N.ar    1  UNL1       -0.1187
      5 S           7.7713   41.0781    7.7674 S.2     1  UNL1       -0.0102
      6 C           4.9107   41.7015    9.0800 C.2     1  UNL1        0.2276
      7 O           5.8927   42.3983    9.4571 O.2     1  UNL1       -0.2747
      8 N           5.0503   40.7669    8.0054 N.am    1  UNL1       -0.2627
      9 H           4.2530   40.2512    7.7453 H       1  UNL1        0.1568
     10 C           3.5711   41.8386    9.7408 C.3     1  UNL1        0.0854
     11 C           3.9712   40.1935   11.5748 C.3     1  UNL1        0.0005
     12 C           3.6161   41.6321   11.2495 C.3     1  UNL1        0.0096
     13 O          10.5646   39.2207    5.2452 O.2     1  UNL1       -0.1477
     14 O          10.4692   41.6651    5.1973 O.2     1  UNL1       -0.1477
     15 S          10.1860   40.4459    6.0296 S.O2    1  UNL1        0.1010
     16 C          11.5001   41.8430    7.9889 C.3     1  UNL1        0.1392
     17 N          11.1134   40.5271    7.4982 N.pl3   1  UNL1       -0.1870
     18 C          11.5133   39.3359    8.2055 C.ar    1  UNL1        0.0689
     19 C          12.8711   38.9877    8.3069 C.ar    1  UNL1        0.0158
     20 C          13.2614   37.8314    8.9884 C.ar    1  UNL1       -0.0029
     21 C          12.2982   37.0091    9.5770 C.ar    1  UNL1       -0.0218
     22 C          12.7128   35.7795   10.3013 C.3     1  UNL1        0.0310
     23 C          10.9453   37.3429    9.4851 C.ar    1  UNL1       -0.0029
     24 C          10.5561   38.4993    8.8037 C.ar    1  UNL1        0.0158
@<TRIPOS>BOND
     1    11    12    1
     2    12    10    1
     3    10     6    1
     4     6     8   am
     5     1     5   ar
     6     2     5   ar
     7    16    17    1
     8    19    20   ar
     9    21    23   ar
    10    22    21    1
    11    24    18   ar
    12     8     1    1
    13     3     4   ar
    14    17    18    1
    15    15     2    1
    16    15    17    1
    17     6     7    2
    18     1     3   ar
    19     2     4   ar
    20    18    19   ar
    21    20    21   ar
    22    23    24   ar
    23    15    13    2
    24    15    14    2
    25     8     9    1
@<TRIPOS>MOLECULE
MolPort-007-723-581 6818374 ChemDiv-E157-6421 MCULE-1653935554 PubChem-22518106 ZINC000006818374 ZINC06818374
 24 25 0 0 0
SMALL
GASTEIGER

@<TRIPOS>ATOM
      1 C           6.1902   40.4978    7.2521 C.ar    1  UNL1        0.1893
      2 C           8.3016   40.0907    6.2148 C.ar    1  UNL1        0.2593
      3 N           6.1242   39.5785    6.2635 N.ar    1  UNL1       -0.1239
      4 N           7.3022   39.3528    5.6850 N.ar    1  UNL1       -0.1187
      5 S           7.7528   41.0866    7.4575 S.2     1  UNL1       -0.0102
      6 C           5.1318   41.8488    9.1230 C.2     1  UNL1        0.2276
      7 O           6.2315   42.3630    9.4672 O.2     1  UNL1       -0.2747
      8 N           5.0690   40.9258    8.0314 N.am    1  UNL1       -0.2627
      9 H           4.1865   40.5567    7.7987 H       1  UNL1        0.1568
     10 C           3.8618   42.1960    9.8416 C.3     1  UNL1        0.0854
     11 C           4.1013   40.3246   11.4756 C.3     1  UNL1        0.0005
     12 C           3.8776   41.8166   11.3170 C.3     1  UNL1        0.0096
     13 O          10.1289   38.8210    4.7720 O.2     1  UNL1       -0.1477
     14 O          10.2750   41.2619    4.8523 O.2     1  UNL1       -0.1477
     15 S           9.9589   40.0285    5.6511 S.O2    1  UNL1        0.1010
     16 C          10.6848   39.0354    8.1014 C.3     1  UNL1        0.1392
     17 N          11.0375   39.9354    7.0117 N.pl3   1  UNL1       -0.1870
     18 C          12.2350   40.7355    7.0820 C.ar    1  UNL1        0.0689
     19 C          13.2228   40.4592    8.0429 C.ar    1  UNL1        0.0158
     20 C          14.3828   41.2357    8.1161 C.ar    1  UNL1       -0.0029
     21 C          14.5690   42.2981    7.2290 C.ar    1  UNL1       -0.0218
     22 C          15.8020   43.1240    7.3069 C.3     1  UNL1        0.0310
     23 C          13.5964   42.5838    6.2684 C.ar    1  UNL1       -0.0029
     24 C          12.4372   41.8068    6.1959 C.ar    1  UNL1        0.0158
@<TRIPOS>BOND
     1    11    12    1
     2    12    10    1
     3    10     6    1
     4     6     8   am
     5     1     5   ar
     6     2     5   ar
     7    16    17    1
     8    19    20   ar
     9    21    23   ar
    10    22    21    1
    11    24    18   ar
    12     8     1    1
    13     3     4   ar
    14    17    18    1
    15    15     2    1
    16    15    17    1
    17     6     7    2
    18     1     3   ar
    19     2     4   ar
    20    18    19   ar
    21    20    21   ar
    22    23    24   ar
    23    15    13    2
    24    15    14    2
    25     8     9    1
@<TRIPOS>MOLECULE
MolPort-007-723-581 6818374 ChemDiv-E157-6421 MCULE-1653935554 PubChem-22518106 ZINC000006818374 ZINC06818374
 24 25 0 0 0
SMALL
GASTEIGER

@<TRIPOS>ATOM
      1 C           5.1498   42.5317    9.8050 C.ar    1  UNL1        0.1893
      2 C           6.4038   42.5012    7.7737 C.ar    1  UNL1        0.2593
      3 N           5.2439   43.7486    9.2244 N.ar    1  UNL1       -0.1239
      4 N           5.9443   43.7307    8.0920 N.ar    1  UNL1       -0.1187
      5 S           5.9519   41.3494    8.9167 S.2     1  UNL1       -0.0102
      6 C           3.0465   42.0560   11.1450 C.2     1  UNL1        0.2276
      7 O           2.3077   42.0740   10.1223 O.2     1  UNL1       -0.2747
      8 N           4.4560   42.2741   11.0297 N.am    1  UNL1       -0.2627
      9 H           4.9895   42.2446   11.8566 H       1  UNL1        0.1568
     10 C           2.4704   41.7984   12.5058 C.3     1  UNL1        0.0854
     11 C           0.6319   42.2104   14.1428 C.3     1  UNL1        0.0005
     12 C           1.1411   42.5034   12.7441 C.3     1  UNL1        0.0096
     13 O           6.8135   40.9546    5.6587 O.2     1  UNL1       -0.1477
     14 O           7.3259   43.3342    5.4118 O.2     1  UNL1       -0.1477
     15 S           7.3731   42.1641    6.3542 S.O2    1  UNL1        0.1010
     16 C          10.0242   41.7741    5.7738 C.3     1  UNL1        0.1392
     17 N           9.0215   41.8746    6.8256 N.pl3   1  UNL1       -0.1870
     18 C           9.3941   41.7144    8.2093 C.ar    1  UNL1        0.0689
     19 C           9.7366   40.4484    8.7145 C.ar    1  UNL1        0.0158
     20 C          10.0942   40.2894   10.0564 C.ar    1  UNL1       -0.0029
     21 C          10.1137   41.3949   10.9096 C.ar    1  UNL1       -0.0218
     22 C          10.4934   41.2260   12.3363 C.3     1  UNL1        0.0310
     23 C           9.7765   42.6591   10.4214 C.ar    1  UNL1       -0.0029
     24 C           9.4194   42.8171    9.0796 C.ar    1  UNL1        0.0158
@<TRIPOS>BOND
     1    11    12    1
     2    12    10    1
     3    10     6    1
     4     6     8   am
     5     1     5   ar
     6     2     5   ar
     7    16    17    1
     8    19    20   ar
     9    21    23   ar
    10    22    21    1
    11    24    18   ar
    12     8     1    1
    13     3     4   ar
    14    17    18    1
    15    15     2    1
    16    15    17    1
    17     6     7    2
    18     1     3   ar
    19     2     4   ar
    20    18    19   ar
    21    20    21   ar
    22    23    24   ar
    23    15    13    2
    24    15    14    2
    25     8     9    1
