@<TRIPOS>MOLECULE
Molport-002-804-440 CSSS00104477131 MCULE-4480941808 PubChem-1813607 ZINC02176372
 22 23 0 0 0
SMALL
GASTEIGER

@<TRIPOS>ATOM
      1 C          14.8988   37.0368   10.2816 C.ar    1  UNL1        0.1398
      2 C          14.1478   37.2002   11.4562 C.ar    1  UNL1        0.0370
      3 C          13.6694   38.4625   11.8149 C.ar    1  UNL1        0.0044
      4 C          13.9384   39.5669   11.0028 C.ar    1  UNL1        0.0149
      5 C          14.6877   39.4167    9.8265 C.ar    1  UNL1        0.0536
      6 C          15.1630   38.1486    9.4749 C.ar    1  UNL1        0.0516
      7 C          14.0830   41.1787    8.0596 C.2     1  UNL1        0.2495
      8 O          12.8876   40.7910    7.9519 O.2     1  UNL1       -0.2698
      9 N          14.9842   40.5261    8.9674 N.am    1  UNL1       -0.2803
     10 H          15.9031   40.8775    9.0039 H       1  UNL1        0.1552
     11 C          14.5595   42.3117    7.2467 C.ar    1  UNL1        0.0545
     12 C          13.6792   42.9950    6.3943 C.ar    1  UNL1        0.0046
     13 C          14.1327   44.0697    5.6237 C.ar    1  UNL1        0.0010
     14 C          15.4695   44.4691    5.6997 C.ar    1  UNL1        0.0114
     15 C          16.3529   43.7939    6.5462 C.ar    1  UNL1        0.0578
     16 C          15.8996   42.7193    7.3167 C.ar    1  UNL1        0.0159
     17 CL         18.0274   44.2933    6.6419 Cl      1  UNL1       -0.0822
     18 O          15.3910   35.7878    9.8938 O.3     1  UNL1       -0.4754
     19 C          14.8242   35.0347    8.8285 C.3     1  UNL1        0.2054
     20 C          15.8994   34.2156    8.1315 C.3     1  UNL1        0.0473
     21 C          16.0073   35.2401    5.8570 C.3     1  UNL1        0.0001
     22 C          16.7207   35.0772    7.1856 C.3     1  UNL1        0.0038
@<TRIPOS>BOND
     1    21    22    1
     2    22    20    1
     3    20    19    1
     4    19    18    1
     5     1    18    1
     6     2     3   ar
     7     4     5   ar
     8     5     9    1
     9     6     1   ar
    10     7    11    1
    11    12    13   ar
    12    14    15   ar
    13    15    17    1
    14    16    11   ar
    15     9     7   am
    16     1     2   ar
    17     3     4   ar
    18     5     6   ar
    19     7     8    2
    20    11    12   ar
    21    13    14   ar
    22    15    16   ar
    23     9    10    1
@<TRIPOS>MOLECULE
Molport-002-804-440 CSSS00104477131 MCULE-4480941808 PubChem-1813607 ZINC02176372
 22 23 0 0 0
SMALL
GASTEIGER

@<TRIPOS>ATOM
      1 C           8.4029   40.8398    6.2404 C.ar    1  UNL1        0.1398
      2 C           8.3970   39.6171    5.5510 C.ar    1  UNL1        0.0370
      3 C           9.5530   39.1659    4.9098 C.ar    1  UNL1        0.0044
      4 C          10.7196   39.9332    4.9540 C.ar    1  UNL1        0.0149
      5 C          10.7384   41.1568    5.6397 C.ar    1  UNL1        0.0536
      6 C           9.5759   41.6010    6.2792 C.ar    1  UNL1        0.0516
      7 C          12.9807   41.8713    6.6662 C.2     1  UNL1        0.2495
      8 O          12.9459   40.9971    7.5747 O.2     1  UNL1       -0.2698
      9 N          11.9163   41.9720    5.7076 N.am    1  UNL1       -0.2803
     10 H          12.0046   42.6753    5.0243 H       1  UNL1        0.1552
     11 C          14.1238   42.7979    6.5874 C.ar    1  UNL1        0.0545
     12 C          14.0470   43.9562    5.7994 C.ar    1  UNL1        0.0046
     13 C          15.1322   44.8344    5.7256 C.ar    1  UNL1        0.0010
     14 C          16.3022   44.5611    6.4390 C.ar    1  UNL1        0.0114
     15 C          16.3869   43.4095    7.2263 C.ar    1  UNL1        0.0578
     16 C          15.3018   42.5314    7.3002 C.ar    1  UNL1        0.0159
     17 CL         17.8517   43.0663    8.1201 Cl      1  UNL1       -0.0822
     18 O           7.2641   41.3191    6.8931 O.3     1  UNL1       -0.4754
     19 C           7.2688   42.5063    7.6764 C.3     1  UNL1        0.2054
     20 C           6.3532   43.5505    7.0567 C.3     1  UNL1        0.0473
     21 C           4.2987   44.8305    7.6692 C.3     1  UNL1        0.0001
     22 C           5.6777   44.3940    8.1261 C.3     1  UNL1        0.0038
@<TRIPOS>BOND
     1    21    22    1
     2    22    20    1
     3    20    19    1
     4    19    18    1
     5     1    18    1
     6     2     3   ar
     7     4     5   ar
     8     5     9    1
     9     6     1   ar
    10     7    11    1
    11    12    13   ar
    12    14    15   ar
    13    15    17    1
    14    16    11   ar
    15     9     7   am
    16     1     2   ar
    17     3     4   ar
    18     5     6   ar
    19     7     8    2
    20    11    12   ar
    21    13    14   ar
    22    15    16   ar
    23     9    10    1
@<TRIPOS>MOLECULE
Molport-002-804-440 CSSS00104477131 MCULE-4480941808 PubChem-1813607 ZINC02176372
 22 23 0 0 0
SMALL
GASTEIGER

@<TRIPOS>ATOM
      1 C          12.0327   37.4690    9.5780 C.ar    1  UNL1        0.1398
      2 C          10.7003   37.5524    9.1443 C.ar    1  UNL1        0.0370
      3 C          10.2835   38.6279    8.3565 C.ar    1  UNL1        0.0044
      4 C          11.1946   39.6244    7.9982 C.ar    1  UNL1        0.0149
      5 C          12.5289   39.5525    8.4253 C.ar    1  UNL1        0.0536
      6 C          12.9377   38.4717    9.2142 C.ar    1  UNL1        0.0516
      7 C          14.7342   40.8273    8.7475 C.2     1  UNL1        0.2495
      8 O          15.0808   40.1532    9.7556 O.2     1  UNL1       -0.2698
      9 N          13.4932   40.5555    8.0780 N.am    1  UNL1       -0.2803
     10 H          13.2819   41.1175    7.2978 H       1  UNL1        0.1552
     11 C          15.6102   41.9035    8.2519 C.ar    1  UNL1        0.0545
     12 C          16.9518   41.9715    8.6571 C.ar    1  UNL1        0.0046
     13 C          17.7818   42.9930    8.1861 C.ar    1  UNL1        0.0010
     14 C          17.2767   43.9543    7.3066 C.ar    1  UNL1        0.0114
     15 C          15.9416   43.8939    6.8981 C.ar    1  UNL1        0.0578
     16 C          15.1117   42.8724    7.3690 C.ar    1  UNL1        0.0159
     17 CL         15.3081   45.0973    5.7969 Cl      1  UNL1       -0.0822
     18 O          12.4821   36.4061   10.3661 O.3     1  UNL1       -0.4754
     19 C          13.3354   35.3842    9.8652 C.3     1  UNL1        0.2054
     20 C          14.6574   35.9793    9.4060 C.3     1  UNL1        0.0473
     21 C          15.0590   33.6549    8.5870 C.3     1  UNL1        0.0001
     22 C          15.2953   35.1291    8.3189 C.3     1  UNL1        0.0038
@<TRIPOS>BOND
     1    21    22    1
     2    22    20    1
     3    20    19    1
     4    19    18    1
     5     1    18    1
     6     2     3   ar
     7     4     5   ar
     8     5     9    1
     9     6     1   ar
    10     7    11    1
    11    12    13   ar
    12    14    15   ar
    13    15    17    1
    14    16    11   ar
    15     9     7   am
    16     1     2   ar
    17     3     4   ar
    18     5     6   ar
    19     7     8    2
    20    11    12   ar
    21    13    14   ar
    22    15    16   ar
    23     9    10    1
@<TRIPOS>MOLECULE
Molport-002-804-440 CSSS00104477131 MCULE-4480941808 PubChem-1813607 ZINC02176372
 22 23 0 0 0
SMALL
GASTEIGER

@<TRIPOS>ATOM
      1 C          14.9414   37.0757   10.2857 C.ar    1  UNL1        0.1398
      2 C          14.1598   37.2111   11.4437 C.ar    1  UNL1        0.0370
      3 C          13.6690   38.4641   11.8181 C.ar    1  UNL1        0.0044
      4 C          13.9560   39.5870   11.0382 C.ar    1  UNL1        0.0149
      5 C          14.7360   39.4648    9.8786 C.ar    1  UNL1        0.0536
      6 C          15.2235   38.2059    9.5111 C.ar    1  UNL1        0.0516
      7 C          16.3393   41.2075    8.8863 C.2     1  UNL1        0.2495
      8 O          17.3472   40.7613    9.4994 O.2     1  UNL1       -0.2698
      9 N          15.0517   40.5938    9.0525 N.am    1  UNL1       -0.2803
     10 H          14.3066   40.9901    8.5456 H       1  UNL1        0.1552
     11 C          16.4838   42.3691    7.9912 C.ar    1  UNL1        0.0545
     12 C          17.7079   43.0489    7.9006 C.ar    1  UNL1        0.0046
     13 C          17.8436   44.1507    7.0510 C.ar    1  UNL1        0.0010
     14 C          16.7566   44.5812    6.2857 C.ar    1  UNL1        0.0114
     15 C          15.5339   43.9097    6.3700 C.ar    1  UNL1        0.0578
     16 C          15.3981   42.8079    7.2195 C.ar    1  UNL1        0.0159
     17 CL         14.1720   44.4481    5.4121 Cl      1  UNL1       -0.0822
     18 O          15.4468   35.8367    9.8829 O.3     1  UNL1       -0.4754
     19 C          15.1181   35.2412    8.6336 C.3     1  UNL1        0.2054
     20 C          14.4690   33.8833    8.8513 C.3     1  UNL1        0.0473
     21 C          14.5770   31.5003    8.1137 C.3     1  UNL1        0.0001
     22 C          15.3800   32.7576    8.3885 C.3     1  UNL1        0.0038
@<TRIPOS>BOND
     1    21    22    1
     2    22    20    1
     3    20    19    1
     4    19    18    1
     5     1    18    1
     6     2     3   ar
     7     4     5   ar
     8     5     9    1
     9     6     1   ar
    10     7    11    1
    11    12    13   ar
    12    14    15   ar
    13    15    17    1
    14    16    11   ar
    15     9     7   am
    16     1     2   ar
    17     3     4   ar
    18     5     6   ar
    19     7     8    2
    20    11    12   ar
    21    13    14   ar
    22    15    16   ar
    23     9    10    1
@<TRIPOS>MOLECULE
Molport-002-804-440 CSSS00104477131 MCULE-4480941808 PubChem-1813607 ZINC02176372
 22 23 0 0 0
SMALL
GASTEIGER

@<TRIPOS>ATOM
      1 C          16.1945   37.7588   11.2094 C.ar    1  UNL1        0.1398
      2 C          14.9851   37.5644   11.8949 C.ar    1  UNL1        0.0370
      3 C          13.8804   38.3718   11.6143 C.ar    1  UNL1        0.0044
      4 C          13.9781   39.3763   10.6484 C.ar    1  UNL1        0.0149
      5 C          15.1812   39.5806    9.9564 C.ar    1  UNL1        0.0536
      6 C          16.2827   38.7672   10.2439 C.ar    1  UNL1        0.0516
      7 C          14.2684   41.3857    8.3752 C.2     1  UNL1        0.2495
      8 O          13.0695   41.2163    8.7285 O.2     1  UNL1       -0.2698
      9 N          15.3201   40.6010    8.9584 N.am    1  UNL1       -0.2803
     10 H          16.2335   40.7828    8.6392 H       1  UNL1        0.1552
     11 C          14.5932   42.3980    7.3548 C.ar    1  UNL1        0.0545
     12 C          13.5793   42.9654    6.5682 C.ar    1  UNL1        0.0046
     13 C          13.8890   43.9257    5.6006 C.ar    1  UNL1        0.0010
     14 C          15.2145   44.3258    5.4122 C.ar    1  UNL1        0.0114
     15 C          16.2303   43.7656    6.1914 C.ar    1  UNL1        0.0578
     16 C          15.9208   42.8055    7.1590 C.ar    1  UNL1        0.0159
     17 CL         17.8906   44.2660    5.9561 Cl      1  UNL1       -0.0822
     18 O          17.3178   36.9679   11.4655 O.3     1  UNL1       -0.4754
     19 C          18.5643   37.1668   10.8098 C.3     1  UNL1        0.2054
     20 C          19.1932   35.8283   10.4557 C.3     1  UNL1        0.0473
     21 C          17.9672   35.8675    8.2808 C.3     1  UNL1        0.0001
     22 C          19.3124   35.6577    8.9496 C.3     1  UNL1        0.0038
@<TRIPOS>BOND
     1    21    22    1
     2    22    20    1
     3    20    19    1
     4    19    18    1
     5     1    18    1
     6     2     3   ar
     7     4     5   ar
     8     5     9    1
     9     6     1   ar
    10     7    11    1
    11    12    13   ar
    12    14    15   ar
    13    15    17    1
    14    16    11   ar
    15     9     7   am
    16     1     2   ar
    17     3     4   ar
    18     5     6   ar
    19     7     8    2
    20    11    12   ar
    21    13    14   ar
    22    15    16   ar
    23     9    10    1
@<TRIPOS>MOLECULE
Molport-002-804-440 CSSS00104477131 MCULE-4480941808 PubChem-1813607 ZINC02176372
 22 23 0 0 0
SMALL
GASTEIGER

@<TRIPOS>ATOM
      1 C          16.1063   37.6656   11.2763 C.ar    1  UNL1        0.1398
      2 C          14.8746   37.4123   11.9001 C.ar    1  UNL1        0.0370
      3 C          13.7789   38.2436   11.6561 C.ar    1  UNL1        0.0044
      4 C          13.9080   39.3309   10.7885 C.ar    1  UNL1        0.0149
      5 C          15.1336   39.5945   10.1589 C.ar    1  UNL1        0.0536
      6 C          16.2258   38.7567   10.4091 C.ar    1  UNL1        0.0516
      7 C          16.5469   41.2903    8.8478 C.2     1  UNL1        0.2495
      8 O          17.6451   40.8417    9.2760 O.2     1  UNL1       -0.2698
      9 N          15.3049   40.7004    9.2621 N.am    1  UNL1       -0.2803
     10 H          14.4839   41.0973    8.8912 H       1  UNL1        0.1552
     11 C          16.5377   42.4300    7.9137 C.ar    1  UNL1        0.0545
     12 C          17.6953   43.1981    7.7179 C.ar    1  UNL1        0.0046
     13 C          17.6852   44.2791    6.8315 C.ar    1  UNL1        0.0010
     14 C          16.5175   44.6001    6.1343 C.ar    1  UNL1        0.0114
     15 C          15.3601   43.8401    6.3235 C.ar    1  UNL1        0.0578
     16 C          15.3702   42.7593    7.2098 C.ar    1  UNL1        0.0159
     17 CL         13.8973   44.2415    5.4509 Cl      1  UNL1       -0.0822
     18 O          17.2213   36.8529   11.4981 O.3     1  UNL1       -0.4754
     19 C          18.4275   36.9825   10.7554 C.3     1  UNL1        0.2054
     20 C          18.6400   35.7593    9.8772 C.3     1  UNL1        0.0473
     21 C          17.1613   34.3093    8.4825 C.3     1  UNL1        0.0001
     22 C          17.6434   35.7261    8.7296 C.3     1  UNL1        0.0038
@<TRIPOS>BOND
     1    21    22    1
     2    22    20    1
     3    20    19    1
     4    19    18    1
     5     1    18    1
     6     2     3   ar
     7     4     5   ar
     8     5     9    1
     9     6     1   ar
    10     7    11    1
    11    12    13   ar
    12    14    15   ar
    13    15    17    1
    14    16    11   ar
    15     9     7   am
    16     1     2   ar
    17     3     4   ar
    18     5     6   ar
    19     7     8    2
    20    11    12   ar
    21    13    14   ar
    22    15    16   ar
    23     9    10    1
@<TRIPOS>MOLECULE
Molport-002-804-440 CSSS00104477131 MCULE-4480941808 PubChem-1813607 ZINC02176372
 22 23 0 0 0
SMALL
GASTEIGER

@<TRIPOS>ATOM
      1 C          11.8520   40.5496   10.2857 C.ar    1  UNL1        0.1398
      2 C          12.5478   41.3413    9.3586 C.ar    1  UNL1        0.0370
      3 C          11.8484   42.1017    8.4186 C.ar    1  UNL1        0.0044
      4 C          10.4518   42.0752    8.4000 C.ar    1  UNL1        0.0149
      5 C           9.7449   41.2881    9.3212 C.ar    1  UNL1        0.0536
      6 C          10.4536   40.5296   10.2593 C.ar    1  UNL1        0.0516
      7 C           7.4410   41.6905   10.3806 C.2     1  UNL1        0.2495
      8 O           7.9139   42.2031   11.4315 O.2     1  UNL1       -0.2698
      9 N           8.3118   41.2351    9.3335 N.am    1  UNL1       -0.2803
     10 H           7.8792   40.8451    8.5398 H       1  UNL1        0.1552
     11 C           5.9816   41.5574   10.2255 C.ar    1  UNL1        0.0545
     12 C           5.4199   41.3175    8.9624 C.ar    1  UNL1        0.0046
     13 C           4.0353   41.1915    8.8167 C.ar    1  UNL1        0.0010
     14 C           3.2020   41.3045    9.9327 C.ar    1  UNL1        0.0114
     15 C           3.7534   41.5435   11.1944 C.ar    1  UNL1        0.0578
     16 C           5.1379   41.6694   11.3401 C.ar    1  UNL1        0.0159
     17 CL          2.7107   41.6852   12.5926 Cl      1  UNL1       -0.0822
     18 O          12.5214   39.7783   11.2395 O.3     1  UNL1       -0.4754
     19 C          13.9139   39.4985   11.1630 C.3     1  UNL1        0.2054
     20 C          14.1457   38.1579   10.4834 C.3     1  UNL1        0.0473
     21 C          12.8277   36.0409   10.3585 C.3     1  UNL1        0.0001
     22 C          13.5252   37.0221   11.2812 C.3     1  UNL1        0.0038
@<TRIPOS>BOND
     1    21    22    1
     2    22    20    1
     3    20    19    1
     4    19    18    1
     5     1    18    1
     6     2     3   ar
     7     4     5   ar
     8     5     9    1
     9     6     1   ar
    10     7    11    1
    11    12    13   ar
    12    14    15   ar
    13    15    17    1
    14    16    11   ar
    15     9     7   am
    16     1     2   ar
    17     3     4   ar
    18     5     6   ar
    19     7     8    2
    20    11    12   ar
    21    13    14   ar
    22    15    16   ar
    23     9    10    1
@<TRIPOS>MOLECULE
Molport-002-804-440 CSSS00104477131 MCULE-4480941808 PubChem-1813607 ZINC02176372
 22 23 0 0 0
SMALL
GASTEIGER

@<TRIPOS>ATOM
      1 C          11.4439   37.7700    8.9989 C.ar    1  UNL1        0.1398
      2 C          10.1129   37.9533    8.5925 C.ar    1  UNL1        0.0370
      3 C           9.7326   39.1281    7.9398 C.ar    1  UNL1        0.0044
      4 C          10.6790   40.1249    7.6900 C.ar    1  UNL1        0.0149
      5 C          12.0123   39.9537    8.0912 C.ar    1  UNL1        0.0536
      6 C          12.3844   38.7737    8.7444 C.ar    1  UNL1        0.0516
      7 C          13.1038   41.8276    6.7166 C.2     1  UNL1        0.2495
      8 O          12.2500   41.7680    5.7902 O.2     1  UNL1       -0.2698
      9 N          13.0121   40.9537    7.8524 N.am    1  UNL1       -0.2803
     10 H          13.7097   41.0514    8.5402 H       1  UNL1        0.1552
     11 C          14.2055   42.8027    6.6332 C.ar    1  UNL1        0.0545
     12 C          14.0662   43.9687    5.8654 C.ar    1  UNL1        0.0046
     13 C          15.1122   44.8929    5.7872 C.ar    1  UNL1        0.0010
     14 C          16.3051   44.6582    6.4760 C.ar    1  UNL1        0.0114
     15 C          16.4520   43.4992    7.2430 C.ar    1  UNL1        0.0578
     16 C          15.4062   42.5751    7.3213 C.ar    1  UNL1        0.0159
     17 CL         17.9456   43.2044    8.1059 Cl      1  UNL1       -0.0822
     18 O          11.8572   36.6063    9.6529 O.3     1  UNL1       -0.4754
     19 C          12.5752   36.6276   10.8807 C.3     1  UNL1        0.2054
     20 C          14.0716   36.6815   10.6155 C.3     1  UNL1        0.0473
     21 C          14.3547   38.8463   11.8272 C.3     1  UNL1        0.0001
     22 C          14.8037   37.4001   11.7376 C.3     1  UNL1        0.0038
@<TRIPOS>BOND
     1    21    22    1
     2    22    20    1
     3    20    19    1
     4    19    18    1
     5     1    18    1
     6     2     3   ar
     7     4     5   ar
     8     5     9    1
     9     6     1   ar
    10     7    11    1
    11    12    13   ar
    12    14    15   ar
    13    15    17    1
    14    16    11   ar
    15     9     7   am
    16     1     2   ar
    17     3     4   ar
    18     5     6   ar
    19     7     8    2
    20    11    12   ar
    21    13    14   ar
    22    15    16   ar
    23     9    10    1
@<TRIPOS>MOLECULE
Molport-002-804-440 CSSS00104477131 MCULE-4480941808 PubChem-1813607 ZINC02176372
 22 23 0 0 0
SMALL
GASTEIGER

@<TRIPOS>ATOM
      1 C           8.4888   40.2566    6.0345 C.ar    1  UNL1        0.1398
      2 C           8.4328   39.3601    4.9558 C.ar    1  UNL1        0.0370
      3 C           9.5668   39.1298    4.1735 C.ar    1  UNL1        0.0044
      4 C          10.7613   39.7932    4.4644 C.ar    1  UNL1        0.0149
      5 C          10.8301   40.6916    5.5396 C.ar    1  UNL1        0.0536
      6 C           9.6894   40.9162    6.3180 C.ar    1  UNL1        0.0516
      7 C          12.9089   41.1310    6.9810 C.2     1  UNL1        0.2495
      8 O          12.6498   40.2045    7.7967 O.2     1  UNL1       -0.2698
      9 N          12.0378   41.3911    5.8694 N.am    1  UNL1       -0.2803
     10 H          12.2972   42.1278    5.2701 H       1  UNL1        0.1552
     11 C          14.1165   41.9541    7.1700 C.ar    1  UNL1        0.0545
     12 C          15.1260   41.5431    8.0534 C.ar    1  UNL1        0.0046
     13 C          16.2710   42.3250    8.2317 C.ar    1  UNL1        0.0010
     14 C          16.4153   43.5236    7.5281 C.ar    1  UNL1        0.0114
     15 C          15.4144   43.9403    6.6463 C.ar    1  UNL1        0.0578
     16 C          14.2695   43.1585    6.4679 C.ar    1  UNL1        0.0159
     17 CL         15.5941   45.4413    5.7648 Cl      1  UNL1       -0.0822
     18 O           7.3731   40.5085    6.8372 O.3     1  UNL1       -0.4754
     19 C           6.9837   41.8211    7.2231 C.3     1  UNL1        0.2054
     20 C           7.3417   42.0703    8.6800 C.3     1  UNL1        0.0473
     21 C           4.8838   41.9486    9.1025 C.3     1  UNL1        0.0001
     22 C           6.2568   41.5506    9.6097 C.3     1  UNL1        0.0038
@<TRIPOS>BOND
     1    21    22    1
     2    22    20    1
     3    20    19    1
     4    19    18    1
     5     1    18    1
     6     2     3   ar
     7     4     5   ar
     8     5     9    1
     9     6     1   ar
    10     7    11    1
    11    12    13   ar
    12    14    15   ar
    13    15    17    1
    14    16    11   ar
    15     9     7   am
    16     1     2   ar
    17     3     4   ar
    18     5     6   ar
    19     7     8    2
    20    11    12   ar
    21    13    14   ar
    22    15    16   ar
    23     9    10    1
@<TRIPOS>MOLECULE
Molport-002-804-440 CSSS00104477131 MCULE-4480941808 PubChem-1813607 ZINC02176372
 22 23 0 0 0
SMALL
GASTEIGER

@<TRIPOS>ATOM
      1 C          13.1115   42.5897    7.4525 C.ar    1  UNL1        0.1398
      2 C          13.9970   41.5129    7.6166 C.ar    1  UNL1        0.0370
      3 C          13.6366   40.4208    8.4093 C.ar    1  UNL1        0.0044
      4 C          12.3910   40.3988    9.0415 C.ar    1  UNL1        0.0149
      5 C          11.4972   41.4687    8.8853 C.ar    1  UNL1        0.0536
      6 C          11.8665   42.5585    8.0895 C.ar    1  UNL1        0.0516
      7 C           8.9298   41.4921    8.8677 C.2     1  UNL1        0.2495
      8 O           8.8489   41.4888    7.6090 O.2     1  UNL1       -0.2698
      9 N          10.2102   41.4823    9.5178 N.am    1  UNL1       -0.2803
     10 H          10.2038   41.4852   10.5023 H       1  UNL1        0.1552
     11 C           7.6996   41.5061    9.6788 C.ar    1  UNL1        0.0545
     12 C           7.7700   41.6246   11.0750 C.ar    1  UNL1        0.0046
     13 C           6.6021   41.6378   11.8433 C.ar    1  UNL1        0.0010
     14 C           5.3553   41.5325   11.2213 C.ar    1  UNL1        0.0114
     15 C           5.2763   41.4140    9.8310 C.ar    1  UNL1        0.0578
     16 C           6.4441   41.4009    9.0628 C.ar    1  UNL1        0.0159
     17 CL          3.7153   41.2820    9.0512 Cl      1  UNL1       -0.0822
     18 O          13.4409   43.6965    6.6656 O.3     1  UNL1       -0.4754
     19 C          14.6831   43.8122    5.9824 C.3     1  UNL1        0.2054
     20 C          15.7728   44.2635    6.9424 C.3     1  UNL1        0.0473
     21 C          18.2354   44.0732    7.3081 C.3     1  UNL1        0.0001
     22 C          17.1382   44.2416    6.2743 C.3     1  UNL1        0.0038
@<TRIPOS>BOND
     1    21    22    1
     2    22    20    1
     3    20    19    1
     4    19    18    1
     5     1    18    1
     6     2     3   ar
     7     4     5   ar
     8     5     9    1
     9     6     1   ar
    10     7    11    1
    11    12    13   ar
    12    14    15   ar
    13    15    17    1
    14    16    11   ar
    15     9     7   am
    16     1     2   ar
    17     3     4   ar
    18     5     6   ar
    19     7     8    2
    20    11    12   ar
    21    13    14   ar
    22    15    16   ar
    23     9    10    1
