@<TRIPOS>MOLECULE
MolPort-035-706-981 CSSS03437789236 MCULE-4701646082 PubChem-91938306
 25 26 0 0 0
SMALL
GASTEIGER

@<TRIPOS>ATOM
      1 C          12.6774   38.0690    9.1546 C.3     1  UNL1        0.2880
      2 C          13.1844   36.7130    8.6845 C.3     1  UNL1        0.0650
      3 C          13.3192   40.2142    8.0075 C.ar    1  UNL1        0.1542
      4 C          14.3218   41.1484    7.7308 C.ar    1  UNL1        0.0529
      5 C          14.0287   42.3128    7.0122 C.ar    1  UNL1        0.0534
      6 C          12.7156   42.5336    6.5684 C.ar    1  UNL1        0.0161
      7 C          11.7113   41.6004    6.8402 C.ar    1  UNL1        0.0190
      8 C          12.0144   40.4423    7.5598 C.ar    1  UNL1        0.0850
      9 C          11.2945   38.3019    8.5799 C.2     1  UNL1        0.2732
     10 O          13.6306   39.0553    8.7267 O.3     1  UNL1       -0.4618
     11 O          10.3770   37.4612    8.7815 O.2     1  UNL1       -0.2704
     12 N          11.0017   39.4804    7.8294 N.am    1  UNL1       -0.2783
     13 H          10.0879   39.6291    7.4943 H       1  UNL1        0.1551
     14 C          16.4268   43.1909    7.2611 C.2     1  UNL1        0.2256
     15 O          16.7949   42.2575    8.0224 O.2     1  UNL1       -0.2748
     16 N          15.0855   43.2465    6.7517 N.am    1  UNL1       -0.2838
     17 H          14.8688   44.0047    6.1622 H       1  UNL1        0.1549
     18 C          17.4101   44.2505    6.8894 C.3     1  UNL1        0.0768
     19 C          17.8328   44.0981    5.4412 C.3     1  UNL1        0.0096
     20 C          18.6271   44.1858    7.7916 C.3     1  UNL1        0.0096
     21 C          12.5964   38.0953   10.6568 C.2     1  UNL1        0.3623
     22 O          12.1226   39.1044   11.2510 O.2     1  UNL1       -0.2457
     23 O          13.1070   37.0225   11.3911 O.3     1  UNL1       -0.4458
     24 C          11.1932   35.5832   11.3560 C.3     1  UNL1        0.0513
     25 C          12.6904   35.6861   11.1572 C.3     1  UNL1        0.2087
@<TRIPOS>BOND
     1    24    25    1
     2    25    23    1
     3    21    23    1
     4     1    21    1
     5     1     2    1
     6     1    10    1
     7     1     9    1
     8     3    10    1
     9     4     5   ar
    10     5    16    1
    11    18    14    1
    12    18    19    1
    13    18    20    1
    14     6     7   ar
    15     8    12    1
    16     8     3   ar
    17    16    14   am
    18    12     9   am
    19    21    22    2
    20     3     4   ar
    21     5     6   ar
    22    14    15    2
    23     7     8   ar
    24     9    11    2
    25    16    17    1
    26    12    13    1
@<TRIPOS>MOLECULE
MolPort-035-706-981 CSSS03437789236 MCULE-4701646082 PubChem-91938306
 25 26 0 0 0
SMALL
GASTEIGER

@<TRIPOS>ATOM
      1 C          15.0141   38.0831   10.2954 C.3     1  UNL1        0.2880
      2 C          15.2753   36.6025   10.5327 C.3     1  UNL1        0.0650
      3 C          12.7695   38.9500    9.5608 C.ar    1  UNL1        0.1542
      4 C          11.8186   39.0431    8.5401 C.ar    1  UNL1        0.0529
      5 C          10.6587   39.8055    8.7176 C.ar    1  UNL1        0.0534
      6 C          10.4570   40.4758    9.9342 C.ar    1  UNL1        0.0161
      7 C          11.4037   40.3824   10.9581 C.ar    1  UNL1        0.0190
      8 C          12.5588   39.6201   10.7698 C.ar    1  UNL1        0.0850
      9 C          14.7148   38.7476   11.6244 C.2     1  UNL1        0.2732
     10 O          13.9230   38.1828    9.3660 O.3     1  UNL1       -0.4618
     11 O          15.5355   38.6531   12.5766 O.2     1  UNL1       -0.2704
     12 N          13.5213   39.5081   11.8112 N.am    1  UNL1       -0.2783
     13 H          13.3625   39.9606   12.6710 H       1  UNL1        0.1551
     14 C          10.0019   39.9102    6.2394 C.2     1  UNL1        0.2256
     15 O          11.1894   39.8770    5.8213 O.2     1  UNL1       -0.2748
     16 N           9.7097   39.8768    7.6448 N.am    1  UNL1       -0.2838
     17 H           8.7589   39.9059    7.8984 H       1  UNL1        0.1549
     18 C           8.8886   39.9852    5.2480 C.3     1  UNL1        0.0768
     19 C           7.5922   39.5012    5.8678 C.3     1  UNL1        0.0096
     20 C           9.2142   39.1570    4.0202 C.3     1  UNL1        0.0096
     21 C          16.2287   38.7285    9.6856 C.2     1  UNL1        0.3623
     22 O          16.1622   39.9034    9.2262 O.2     1  UNL1       -0.2457
     23 O          17.4127   37.9960    9.5740 O.3     1  UNL1       -0.4458
     24 C          19.4013   37.0874   10.5514 C.3     1  UNL1        0.0513
     25 C          18.5777   38.3345   10.3106 C.3     1  UNL1        0.2087
@<TRIPOS>BOND
     1    24    25    1
     2    25    23    1
     3    21    23    1
     4     1    21    1
     5     1     2    1
     6     1    10    1
     7     1     9    1
     8     3    10    1
     9     4     5   ar
    10     5    16    1
    11    18    14    1
    12    18    19    1
    13    18    20    1
    14     6     7   ar
    15     8    12    1
    16     8     3   ar
    17    16    14   am
    18    12     9   am
    19    21    22    2
    20     3     4   ar
    21     5     6   ar
    22    14    15    2
    23     7     8   ar
    24     9    11    2
    25    16    17    1
    26    12    13    1
@<TRIPOS>MOLECULE
MolPort-035-706-981 CSSS03437789236 MCULE-4701646082 PubChem-91938306
 25 26 0 0 0
SMALL
GASTEIGER

@<TRIPOS>ATOM
      1 C          13.7950   37.3555   10.5909 C.3     1  UNL1        0.2880
      2 C          13.5236   36.1569   11.4890 C.3     1  UNL1        0.0650
      3 C          11.9482   38.8199    9.7110 C.ar    1  UNL1        0.1542
      4 C          10.8538   38.9472    8.8504 C.ar    1  UNL1        0.0529
      5 C          10.1826   40.1693    8.7312 C.ar    1  UNL1        0.0534
      6 C          10.6181   41.2685    9.4875 C.ar    1  UNL1        0.0161
      7 C          11.7097   41.1442   10.3514 C.ar    1  UNL1        0.0190
      8 C          12.3735   39.9203   10.4615 C.ar    1  UNL1        0.0850
      9 C          14.1755   38.5404   11.4559 C.2     1  UNL1        0.2732
     10 O          12.6069   37.5903    9.8179 O.3     1  UNL1       -0.4618
     11 O          15.1355   38.4473   12.2677 O.2     1  UNL1       -0.2704
     12 N          13.4770   39.7807   11.3484 N.am    1  UNL1       -0.2783
     13 H          13.7623   40.5485   11.8945 H       1  UNL1        0.1551
     14 C           7.7710   40.8046    8.1275 C.2     1  UNL1        0.2256
     15 O           7.5055   41.2754    9.2651 O.2     1  UNL1       -0.2748
     16 N           9.0663   40.2582    7.8354 N.am    1  UNL1       -0.2838
     17 H           9.2022   39.9081    6.9253 H       1  UNL1        0.1549
     18 C           6.7137   40.8206    7.0741 C.3     1  UNL1        0.0768
     19 C           6.7660   39.5489    6.2499 C.3     1  UNL1        0.0096
     20 C           6.8815   42.0276    6.1716 C.3     1  UNL1        0.0096
     21 C          14.9295   37.0481    9.6516 C.2     1  UNL1        0.3623
     22 O          15.4251   37.9605    8.9321 O.2     1  UNL1       -0.2457
     23 O          15.3879   35.7338    9.5351 O.3     1  UNL1       -0.4458
     24 C          15.8479   33.6279    8.4915 C.3     1  UNL1        0.0513
     25 C          15.4959   35.0847    8.2776 C.3     1  UNL1        0.2087
@<TRIPOS>BOND
     1    24    25    1
     2    25    23    1
     3    21    23    1
     4     1    21    1
     5     1     2    1
     6     1    10    1
     7     1     9    1
     8     3    10    1
     9     4     5   ar
    10     5    16    1
    11    18    14    1
    12    18    19    1
    13    18    20    1
    14     6     7   ar
    15     8    12    1
    16     8     3   ar
    17    16    14   am
    18    12     9   am
    19    21    22    2
    20     3     4   ar
    21     5     6   ar
    22    14    15    2
    23     7     8   ar
    24     9    11    2
    25    16    17    1
    26    12    13    1
@<TRIPOS>MOLECULE
MolPort-035-706-981 CSSS03437789236 MCULE-4701646082 PubChem-91938306
 25 26 0 0 0
SMALL
GASTEIGER

@<TRIPOS>ATOM
      1 C           4.0844   41.5589    9.6199 C.3     1  UNL1        0.2880
      2 C           2.8374   40.7535    9.2835 C.3     1  UNL1        0.0650
      3 C           6.1444   41.5104    8.1764 C.ar    1  UNL1        0.1542
      4 C           7.2442   40.7800    7.7164 C.ar    1  UNL1        0.0529
      5 C           8.1964   41.3788    6.8840 C.ar    1  UNL1        0.0534
      6 C           8.0354   42.7226    6.5122 C.ar    1  UNL1        0.0161
      7 C           6.9356   43.4551    6.9672 C.ar    1  UNL1        0.0190
      8 C           5.9919   42.8481    7.7991 C.ar    1  UNL1        0.0850
      9 C           3.9006   42.9785    9.1219 C.2     1  UNL1        0.2732
     10 O           5.2019   40.8953    9.0074 O.3     1  UNL1       -0.4618
     11 O           2.9008   43.6524    9.4900 O.2     1  UNL1       -0.2704
     12 N           4.8620   43.5818    8.2561 N.am    1  UNL1       -0.2783
     13 H           4.7418   44.5167    7.9720 H       1  UNL1        0.1551
     14 C           9.3502   39.7339    5.2881 C.2     1  UNL1        0.2256
     15 O           8.3435   39.5962    4.5439 O.2     1  UNL1       -0.2748
     16 N           9.3108   40.5952    6.4363 N.am    1  UNL1       -0.2838
     17 H          10.1347   40.6539    6.9719 H       1  UNL1        0.1549
     18 C          10.5987   38.9844    4.9607 C.3     1  UNL1        0.0768
     19 C          11.8146   39.7239    5.4841 C.3     1  UNL1        0.0096
     20 C          10.7213   38.7854    3.4625 C.3     1  UNL1        0.0096
     21 C           4.2944   41.5838   11.1095 C.2     1  UNL1        0.3623
     22 O           5.4440   41.7992   11.5866 O.2     1  UNL1       -0.2457
     23 O           3.2217   41.3040   11.9592 O.3     1  UNL1       -0.4458
     24 C           1.0812   42.2195   12.5209 C.3     1  UNL1        0.0513
     25 C           2.5791   42.3179   12.7165 C.3     1  UNL1        0.2087
@<TRIPOS>BOND
     1    24    25    1
     2    25    23    1
     3    21    23    1
     4     1    21    1
     5     1     2    1
     6     1    10    1
     7     1     9    1
     8     3    10    1
     9     4     5   ar
    10     5    16    1
    11    18    14    1
    12    18    19    1
    13    18    20    1
    14     6     7   ar
    15     8    12    1
    16     8     3   ar
    17    16    14   am
    18    12     9   am
    19    21    22    2
    20     3     4   ar
    21     5     6   ar
    22    14    15    2
    23     7     8   ar
    24     9    11    2
    25    16    17    1
    26    12    13    1
@<TRIPOS>MOLECULE
MolPort-035-706-981 CSSS03437789236 MCULE-4701646082 PubChem-91938306
 25 26 0 0 0
SMALL
GASTEIGER

@<TRIPOS>ATOM
      1 C           6.2544   42.8271    8.1262 C.3     1  UNL1        0.2880
      2 C           6.0156   42.8390    6.6230 C.3     1  UNL1        0.0650
      3 C           8.5166   42.3601    9.1230 C.ar    1  UNL1        0.1542
      4 C           9.5233   41.4229    9.3738 C.ar    1  UNL1        0.0529
      5 C          10.6520   41.7761   10.1218 C.ar    1  UNL1        0.0534
      6 C          10.7655   43.0844   10.6173 C.ar    1  UNL1        0.0161
      7 C           9.7629   44.0250   10.3659 C.ar    1  UNL1        0.0190
      8 C           8.6397   43.6614    9.6195 C.ar    1  UNL1        0.0850
      9 C           6.4588   44.2516    8.6017 C.2     1  UNL1        0.2732
     10 O           7.3954   41.9895    8.3728 O.3     1  UNL1       -0.4618
     11 O           5.5862   45.1290    8.3613 O.2     1  UNL1       -0.2704
     12 N           7.6205   44.6158    9.3471 N.am    1  UNL1       -0.2783
     13 H           7.7176   45.5385    9.6765 H       1  UNL1        0.1551
     14 C          12.9056   40.6403    9.6579 C.2     1  UNL1        0.2256
     15 O          13.2218   41.4259    8.7257 O.2     1  UNL1       -0.2748
     16 N          11.6603   40.7842   10.3582 N.am    1  UNL1       -0.2838
     17 H          11.4800   40.1343   11.0753 H       1  UNL1        0.1549
     18 C          13.8491   39.5460   10.0319 C.3     1  UNL1        0.0768
     19 C          13.7615   39.2539   11.5173 C.3     1  UNL1        0.0096
     20 C          15.2712   39.9216    9.6630 C.3     1  UNL1        0.0096
     21 C           5.0624   42.2396    8.8318 C.2     1  UNL1        0.3623
     22 O           3.9429   42.8229    8.7832 O.2     1  UNL1       -0.2457
     23 O           5.2179   41.0789    9.5929 O.3     1  UNL1       -0.4458
     24 C           3.9838   40.2077   11.4513 C.3     1  UNL1        0.0513
     25 C           5.1302   41.0921   11.0094 C.3     1  UNL1        0.2087
@<TRIPOS>BOND
     1    24    25    1
     2    25    23    1
     3    21    23    1
     4     1    21    1
     5     1     2    1
     6     1    10    1
     7     1     9    1
     8     3    10    1
     9     4     5   ar
    10     5    16    1
    11    18    14    1
    12    18    19    1
    13    18    20    1
    14     6     7   ar
    15     8    12    1
    16     8     3   ar
    17    16    14   am
    18    12     9   am
    19    21    22    2
    20     3     4   ar
    21     5     6   ar
    22    14    15    2
    23     7     8   ar
    24     9    11    2
    25    16    17    1
    26    12    13    1
@<TRIPOS>MOLECULE
MolPort-035-706-981 CSSS03437789236 MCULE-4701646082 PubChem-91938306
 25 26 0 0 0
SMALL
GASTEIGER

@<TRIPOS>ATOM
      1 C          15.0543   38.6743   10.5881 C.3     1  UNL1        0.2880
      2 C          15.5190   38.7466   12.0358 C.3     1  UNL1        0.0650
      3 C          13.4000   40.3072    9.6256 C.ar    1  UNL1        0.1542
      4 C          12.0797   40.7658    9.5924 C.ar    1  UNL1        0.0529
      5 C          11.7017   41.7780    8.7033 C.ar    1  UNL1        0.0534
      6 C          12.6637   42.3319    7.8443 C.ar    1  UNL1        0.0161
      7 C          13.9852   41.8785    7.8768 C.ar    1  UNL1        0.0190
      8 C          14.3514   40.8664    8.7671 C.ar    1  UNL1        0.0850
      9 C          16.0800   39.3613    9.7088 C.2     1  UNL1        0.2732
     10 O          13.7601   39.2948   10.5215 O.3     1  UNL1       -0.4618
     11 O          17.2858   38.9951    9.7408 O.2     1  UNL1       -0.2704
     12 N          15.6972   40.4080    8.8168 N.am    1  UNL1       -0.2783
     13 H          16.3725   40.8174    8.2291 H       1  UNL1        0.1551
     14 C           9.7701   43.2688    9.4972 C.2     1  UNL1        0.2256
     15 O          10.4770   43.9215   10.3099 O.2     1  UNL1       -0.2748
     16 N          10.3368   42.2180    8.6995 N.am    1  UNL1       -0.2838
     17 H           9.7247   41.7509    8.0860 H       1  UNL1        0.1549
     18 C           8.3208   43.6024    9.3701 C.3     1  UNL1        0.0768
     19 C           7.7490   43.0089    8.0973 C.3     1  UNL1        0.0096
     20 C           8.1195   45.1054    9.3743 C.3     1  UNL1        0.0096
     21 C          14.9239   37.2376   10.1609 C.2     1  UNL1        0.3623
     22 O          15.8703   36.4254   10.3620 O.2     1  UNL1       -0.2457
     23 O          13.7744   36.8240    9.4837 O.3     1  UNL1       -0.4458
     24 C          11.4616   36.7736   10.1034 C.3     1  UNL1        0.0513
     25 C          12.7794   36.0284   10.1093 C.3     1  UNL1        0.2087
@<TRIPOS>BOND
     1    24    25    1
     2    25    23    1
     3    21    23    1
     4     1    21    1
     5     1     2    1
     6     1    10    1
     7     1     9    1
     8     3    10    1
     9     4     5   ar
    10     5    16    1
    11    18    14    1
    12    18    19    1
    13    18    20    1
    14     6     7   ar
    15     8    12    1
    16     8     3   ar
    17    16    14   am
    18    12     9   am
    19    21    22    2
    20     3     4   ar
    21     5     6   ar
    22    14    15    2
    23     7     8   ar
    24     9    11    2
    25    16    17    1
    26    12    13    1
@<TRIPOS>MOLECULE
MolPort-035-706-981 CSSS03437789236 MCULE-4701646082 PubChem-91938306
 25 26 0 0 0
SMALL
GASTEIGER

@<TRIPOS>ATOM
      1 C          15.0444   37.2642   10.1481 C.3     1  UNL1        0.2880
      2 C          15.3313   36.0258    9.3109 C.3     1  UNL1        0.0650
      3 C          14.1847   39.4006    9.1350 C.ar    1  UNL1        0.1542
      4 C          14.4486   40.5131    8.3305 C.ar    1  UNL1        0.0529
      5 C          13.4889   41.5193    8.1731 C.ar    1  UNL1        0.0534
      6 C          12.2546   41.3998    8.8305 C.ar    1  UNL1        0.0161
      7 C          11.9858   40.2875    9.6329 C.ar    1  UNL1        0.0190
      8 C          12.9514   39.2898    9.7845 C.ar    1  UNL1        0.0850
      9 C          13.6671   37.1301   10.7663 C.2     1  UNL1        0.2732
     10 O          15.1557   38.4039    9.2803 O.3     1  UNL1       -0.4618
     11 O          13.3855   36.1217   11.4684 O.2     1  UNL1       -0.2704
     12 N          12.6817   38.1475   10.5883 N.am    1  UNL1       -0.2783
     13 H          11.8049   38.0575   11.0270 H       1  UNL1        0.1551
     14 C          15.1055   43.1786    7.0699 C.2     1  UNL1        0.2256
     15 O          16.1369   42.6627    7.5762 O.2     1  UNL1       -0.2748
     16 N          13.8004   42.6449    7.3410 N.am    1  UNL1       -0.2838
     17 H          13.0401   43.0991    6.9109 H       1  UNL1        0.1549
     18 C          15.2553   44.3635    6.1747 C.3     1  UNL1        0.0768
     19 C          14.7915   44.0300    4.7702 C.3     1  UNL1        0.0096
     20 C          16.6986   44.8275    6.1449 C.3     1  UNL1        0.0096
     21 C          16.0657   37.3910   11.2456 C.2     1  UNL1        0.3623
     22 O          15.8036   38.0601   12.2846 O.2     1  UNL1       -0.2457
     23 O          17.3280   36.8167   11.0791 O.3     1  UNL1       -0.4458
     24 C          18.4892   38.8903   10.7841 C.3     1  UNL1        0.0513
     25 C          18.3498   37.4536   10.3278 C.3     1  UNL1        0.2087
@<TRIPOS>BOND
     1    24    25    1
     2    25    23    1
     3    21    23    1
     4     1    21    1
     5     1     2    1
     6     1    10    1
     7     1     9    1
     8     3    10    1
     9     4     5   ar
    10     5    16    1
    11    18    14    1
    12    18    19    1
    13    18    20    1
    14     6     7   ar
    15     8    12    1
    16     8     3   ar
    17    16    14   am
    18    12     9   am
    19    21    22    2
    20     3     4   ar
    21     5     6   ar
    22    14    15    2
    23     7     8   ar
    24     9    11    2
    25    16    17    1
    26    12    13    1
@<TRIPOS>MOLECULE
MolPort-035-706-981 CSSS03437789236 MCULE-4701646082 PubChem-91938306
 25 26 0 0 0
SMALL
GASTEIGER

@<TRIPOS>ATOM
      1 C          14.6391   38.6985   10.4772 C.3     1  UNL1        0.2880
      2 C          15.1901   38.6851   11.8961 C.3     1  UNL1        0.0650
      3 C          12.4591   39.8106    9.8936 C.ar    1  UNL1        0.1542
      4 C          11.0647   39.7948    9.9921 C.ar    1  UNL1        0.0529
      5 C          10.2945   40.7511    9.3207 C.ar    1  UNL1        0.0534
      6 C          10.9370   41.7304    8.5474 C.ar    1  UNL1        0.0161
      7 C          12.3310   41.7515    8.4493 C.ar    1  UNL1        0.0190
      8 C          13.0901   40.7913    9.1221 C.ar    1  UNL1        0.0850
      9 C          15.2962   39.8261    9.7066 C.2     1  UNL1        0.2732
     10 O          13.2132   38.8471   10.5721 O.3     1  UNL1       -0.4618
     11 O          16.5528   39.8890    9.6281 O.2     1  UNL1       -0.2704
     12 N          14.5100   40.8131    9.0391 N.am    1  UNL1       -0.2783
     13 H          14.9558   41.5173    8.5150 H       1  UNL1        0.1551
     14 C           7.9895   41.7932    9.7505 C.2     1  UNL1        0.2256
     15 O           8.4401   42.9536    9.9415 O.2     1  UNL1       -0.2748
     16 N           8.8670   40.6981    9.4461 N.am    1  UNL1       -0.2838
     17 H           8.4445   39.8195    9.3092 H       1  UNL1        0.1549
     18 C           6.5175   41.5651    9.8447 C.3     1  UNL1        0.0768
     19 C           5.7601   42.7199    9.2187 C.3     1  UNL1        0.0096
     20 C           6.0976   41.3968   11.2921 C.3     1  UNL1        0.0096
     21 C          14.9445   37.3931    9.7944 C.2     1  UNL1        0.3623
     22 O          15.4920   37.3831    8.6561 O.2     1  UNL1       -0.2457
     23 O          14.5605   36.1946   10.4004 O.3     1  UNL1       -0.4458
     24 C          12.2509   35.5752   10.5331 C.3     1  UNL1        0.0513
     25 C          13.5732   35.3482    9.8320 C.3     1  UNL1        0.2087
@<TRIPOS>BOND
     1    24    25    1
     2    25    23    1
     3    21    23    1
     4     1    21    1
     5     1     2    1
     6     1    10    1
     7     1     9    1
     8     3    10    1
     9     4     5   ar
    10     5    16    1
    11    18    14    1
    12    18    19    1
    13    18    20    1
    14     6     7   ar
    15     8    12    1
    16     8     3   ar
    17    16    14   am
    18    12     9   am
    19    21    22    2
    20     3     4   ar
    21     5     6   ar
    22    14    15    2
    23     7     8   ar
    24     9    11    2
    25    16    17    1
    26    12    13    1
@<TRIPOS>MOLECULE
MolPort-035-706-981 CSSS03437789236 MCULE-4701646082 PubChem-91938306
 25 26 0 0 0
SMALL
GASTEIGER

@<TRIPOS>ATOM
      1 C          14.6578   38.7901   10.1832 C.3     1  UNL1        0.2880
      2 C          14.4330   38.8171   11.6884 C.3     1  UNL1        0.0650
      3 C          13.2043   40.0794    8.5849 C.ar    1  UNL1        0.1542
      4 C          11.9523   40.2151    7.9779 C.ar    1  UNL1        0.0529
      5 C          11.7375   41.1976    7.0049 C.ar    1  UNL1        0.0534
      6 C          12.7931   42.0497    6.6448 C.ar    1  UNL1        0.0161
      7 C          14.0452   41.9193    7.2517 C.ar    1  UNL1        0.0190
      8 C          14.2493   40.9341    8.2205 C.ar    1  UNL1        0.0850
      9 C          15.7431   39.7878    9.8313 C.2     1  UNL1        0.2732
     10 O          13.4008   39.0919    9.5561 O.3     1  UNL1       -0.4618
     11 O          16.8724   39.7146   10.3868 O.2     1  UNL1       -0.2704
     12 N          15.5165   40.8028    8.8535 N.am    1  UNL1       -0.2783
     13 H          16.2458   41.4193    8.6142 H       1  UNL1        0.1551
     14 C           9.2618   41.8720    6.9973 C.2     1  UNL1        0.2256
     15 O           9.2871   42.3528    8.1611 O.2     1  UNL1       -0.2748
     16 N          10.4390   41.3017    6.4052 N.am    1  UNL1       -0.2838
     17 H          10.3450   40.9450    5.4925 H       1  UNL1        0.1549
     18 C           7.9813   41.9015    6.2310 C.3     1  UNL1        0.0768
     19 C           7.1746   43.1336    6.5922 C.3     1  UNL1        0.0096
     20 C           7.1675   40.6524    6.5084 C.3     1  UNL1        0.0096
     21 C          15.0949   37.4162    9.7529 C.2     1  UNL1        0.3623
     22 O          15.8783   37.2757    8.7719 O.2     1  UNL1       -0.2457
     23 O          14.5780   36.2950   10.4061 O.3     1  UNL1       -0.4458
     24 C          12.2216   35.8954   10.5576 C.3     1  UNL1        0.0513
     25 C          13.5143   35.5310    9.8592 C.3     1  UNL1        0.2087
@<TRIPOS>BOND
     1    24    25    1
     2    25    23    1
     3    21    23    1
     4     1    21    1
     5     1     2    1
     6     1    10    1
     7     1     9    1
     8     3    10    1
     9     4     5   ar
    10     5    16    1
    11    18    14    1
    12    18    19    1
    13    18    20    1
    14     6     7   ar
    15     8    12    1
    16     8     3   ar
    17    16    14   am
    18    12     9   am
    19    21    22    2
    20     3     4   ar
    21     5     6   ar
    22    14    15    2
    23     7     8   ar
    24     9    11    2
    25    16    17    1
    26    12    13    1
@<TRIPOS>MOLECULE
MolPort-035-706-981 CSSS03437789236 MCULE-4701646082 PubChem-91938306
 25 26 0 0 0
SMALL
GASTEIGER

@<TRIPOS>ATOM
      1 C           3.9746   41.8851    9.6145 C.3     1  UNL1        0.2880
      2 C           2.8668   41.0115    9.0433 C.3     1  UNL1        0.0650
      3 C           6.3834   41.6097    8.9425 C.ar    1  UNL1        0.1542
      4 C           7.5401   40.8264    8.9976 C.ar    1  UNL1        0.0529
      5 C           8.7329   41.2799    8.4234 C.ar    1  UNL1        0.0534
      6 C           8.7567   42.5311    7.7878 C.ar    1  UNL1        0.0161
      7 C           7.6016   43.3156    7.7279 C.ar    1  UNL1        0.0190
      8 C           6.4168   42.8541    8.3057 C.ar    1  UNL1        0.0850
      9 C           4.0204   43.1876    8.8408 C.2     1  UNL1        0.2732
     10 O           5.1996   41.1400    9.5215 O.3     1  UNL1       -0.4618
     11 O           2.9853   43.9004    8.7425 O.2     1  UNL1       -0.2704
     12 N           5.2327   43.6396    8.2378 N.am    1  UNL1       -0.2783
     13 H           5.2496   44.5053    7.7693 H       1  UNL1        0.1551
     14 C          10.6847   40.1807    9.6747 C.2     1  UNL1        0.2256
     15 O          10.3900   40.6933   10.7867 O.2     1  UNL1       -0.2748
     16 N           9.8972   40.4467    8.5039 N.am    1  UNL1       -0.2838
     17 H          10.1868   40.0118    7.6695 H       1  UNL1        0.1549
     18 C          11.8742   39.2835    9.5852 C.3     1  UNL1        0.0768
     19 C          11.4494   37.8298    9.6582 C.3     1  UNL1        0.0096
     20 C          12.8561   39.5907   10.6991 C.3     1  UNL1        0.0096
     21 C           3.6992   42.1832   11.0633 C.2     1  UNL1        0.3623
     22 O           4.6350   42.1409   11.9108 O.2     1  UNL1       -0.2457
     23 O           2.3901   42.4449   11.4739 O.3     1  UNL1       -0.4458
     24 C           0.7436   42.8637   13.1619 C.3     1  UNL1        0.0513
     25 C           1.8834   41.9740   12.7132 C.3     1  UNL1        0.2087
@<TRIPOS>BOND
     1    24    25    1
     2    25    23    1
     3    21    23    1
     4     1    21    1
     5     1     2    1
     6     1    10    1
     7     1     9    1
     8     3    10    1
     9     4     5   ar
    10     5    16    1
    11    18    14    1
    12    18    19    1
    13    18    20    1
    14     6     7   ar
    15     8    12    1
    16     8     3   ar
    17    16    14   am
    18    12     9   am
    19    21    22    2
    20     3     4   ar
    21     5     6   ar
    22    14    15    2
    23     7     8   ar
    24     9    11    2
    25    16    17    1
    26    12    13    1
