@<TRIPOS>MOLECULE
Molport-020-278-675 MCULE-1527816601 MCULE-2505562369 PubChem-110255547
 28 31 0 0 0
SMALL
GASTEIGER

@<TRIPOS>ATOM
      1 C          13.8895   38.9038   11.7187 C.3     1  UNL1        0.0522
      2 C          13.4749   39.8682   10.6670 C.ar    1  UNL1        0.0635
      3 C          14.3418   40.1727    9.6199 C.ar    1  UNL1        0.0492
      4 C          13.9239   41.0833    8.6433 C.ar    1  UNL1        0.1358
      5 C          11.8541   41.3371    9.7707 C.ar    1  UNL1        0.1411
      6 N          12.6894   41.6434    8.7432 N.ar    1  UNL1       -0.2159
      7 N          12.2506   40.4521   10.7255 N.ar    1  UNL1       -0.2349
      8 C          10.5061   41.9742    9.8371 C.3     1  UNL1        0.0746
      9 C          10.6292   43.4685   10.0985 C.3     1  UNL1        0.0104
     10 C           9.2410   44.0826   10.1753 C.3     1  UNL1        0.0178
     11 C           8.4220   43.3806   11.2634 C.3     1  UNL1        0.0725
     12 C           9.6530   41.3167   10.9287 C.3     1  UNL1        0.0800
     13 N           8.3211   41.9299   11.0472 N.3     1  UNL1       -0.2660
     14 C           7.5307   41.6598    9.8484 C.3     1  UNL1        0.1368
     15 C           6.0955   41.4718   10.2066 C.ar    1  UNL1        0.1335
     16 C           4.0361   40.9693   10.0651 C.ar    1  UNL1        0.1186
     17 C           4.2822   41.5096   11.3121 C.ar    1  UNL1        0.0943
     18 N           5.1855   40.9479    9.3660 N.ar    1  UNL1       -0.2281
     19 N           5.5867   41.8282   11.3985 N.ar    1  UNL1       -0.3385
     20 H           6.0609   42.2309   12.1616 H       1  UNL1        0.1672
     21 N          14.7618   41.4467    7.5370 N.pl3   1  UNL1       -0.2820
     22 H          15.3147   40.7276    7.1542 H       1  UNL1        0.1551
     23 C          14.8861   42.7374    6.9250 C.ar    1  UNL1        0.1526
     24 C          16.1059   44.7316    6.5203 C.ar    1  UNL1        0.1210
     25 C          15.0671   45.2054    5.7183 C.ar    1  UNL1        0.1196
     26 C          13.8487   43.2150    6.1212 C.ar    1  UNL1        0.1332
     27 N          15.9930   43.5098    7.1050 N.ar    1  UNL1       -0.2258
     28 N          13.9609   44.4368    5.5362 N.ar    1  UNL1       -0.2378
@<TRIPOS>BOND
     1     1     2    1
     2     2     7   ar
     3     3     4   ar
     4     4    21    1
     5     5     6   ar
     6     8     5    1
     7     8     9    1
     8     9    10    1
     9    10    11    1
    10    11    13    1
    11    12    13    1
    12    12     8    1
    13    14    13    1
    14    14    15    1
    15    16    18   ar
    16    17    19   ar
    17    24    27   ar
    18    25    28   ar
    19    26    23   ar
    20    19    15   ar
    21    21    23    1
    22     2     3   ar
    23     4     6   ar
    24     5     7   ar
    25    15    18   ar
    26    16    17   ar
    27    23    27   ar
    28    24    25   ar
    29    26    28   ar
    30    19    20    1
    31    21    22    1
@<TRIPOS>MOLECULE
Molport-020-278-675 MCULE-1527816601 MCULE-2505562369 PubChem-110255547
 28 31 0 0 0
SMALL
GASTEIGER

@<TRIPOS>ATOM
      1 C          13.9424   39.1056   11.6761 C.3     1  UNL1        0.0522
      2 C          13.2590   39.9531   10.6648 C.ar    1  UNL1        0.0635
      3 C          13.8791   40.2207    9.4463 C.ar    1  UNL1        0.0492
      4 C          13.2113   41.0206    8.5127 C.ar    1  UNL1        0.1358
      5 C          11.3889   41.2435   10.0123 C.ar    1  UNL1        0.1411
      6 N          11.9818   41.5126    8.8192 N.ar    1  UNL1       -0.2159
      7 N          12.0296   40.4659   10.9272 N.ar    1  UNL1       -0.2349
      8 C          10.0362   41.8024   10.3036 C.3     1  UNL1        0.0746
      9 C           9.5979   41.4431   11.7162 C.3     1  UNL1        0.0104
     10 C           8.2129   42.0134   11.9745 C.3     1  UNL1        0.0178
     11 C           7.2303   41.4872   10.9232 C.3     1  UNL1        0.0725
     12 C           9.0104   41.2874    9.2866 C.3     1  UNL1        0.0800
     13 N           7.6546   41.7941    9.5494 N.3     1  UNL1       -0.2660
     14 C           7.6002   43.2366    9.3229 C.3     1  UNL1        0.1368
     15 C           6.2423   43.6356    8.8535 C.ar    1  UNL1        0.1335
     16 C           4.6925   44.5439    7.7191 C.ar    1  UNL1        0.1186
     17 C           4.1291   43.8274    8.7569 C.ar    1  UNL1        0.0943
     18 N           6.0310   44.4225    7.7834 N.ar    1  UNL1       -0.2281
     19 N           5.1128   43.2544    9.4744 N.ar    1  UNL1       -0.3385
     20 H           5.0251   42.6852   10.2728 H       1  UNL1        0.1672
     21 N          13.7870   41.3402    7.2381 N.pl3   1  UNL1       -0.2820
     22 H          13.8083   40.6131    6.5747 H       1  UNL1        0.1551
     23 C          14.3350   42.5975    6.8199 C.ar    1  UNL1        0.1526
     24 C          16.0965   44.1865    6.7959 C.ar    1  UNL1        0.1210
     25 C          15.3332   45.0219    5.9796 C.ar    1  UNL1        0.1196
     26 C          13.5742   43.4362    6.0025 C.ar    1  UNL1        0.1332
     27 N          15.5817   42.9944    7.1974 N.ar    1  UNL1       -0.2258
     28 N          14.0884   44.6286    5.6007 N.ar    1  UNL1       -0.2378
@<TRIPOS>BOND
     1     1     2    1
     2     2     7   ar
     3     3     4   ar
     4     4    21    1
     5     5     6   ar
     6     8     5    1
     7     8     9    1
     8     9    10    1
     9    10    11    1
    10    11    13    1
    11    12    13    1
    12    12     8    1
    13    14    13    1
    14    14    15    1
    15    16    18   ar
    16    17    19   ar
    17    24    27   ar
    18    25    28   ar
    19    26    23   ar
    20    19    15   ar
    21    21    23    1
    22     2     3   ar
    23     4     6   ar
    24     5     7   ar
    25    15    18   ar
    26    16    17   ar
    27    23    27   ar
    28    24    25   ar
    29    26    28   ar
    30    19    20    1
    31    21    22    1
@<TRIPOS>MOLECULE
Molport-020-278-675 MCULE-1527816601 MCULE-2505562369 PubChem-110255547
 28 31 0 0 0
SMALL
GASTEIGER

@<TRIPOS>ATOM
      1 C          12.9935   39.9757   10.8380 C.3     1  UNL1        0.0522
      2 C          12.3829   40.6025    9.6371 C.ar    1  UNL1        0.0635
      3 C          13.1936   41.0509    8.5967 C.ar    1  UNL1        0.0492
      4 C          12.5907   41.6357    7.4777 C.ar    1  UNL1        0.1358
      5 C          10.4582   41.3082    8.4599 C.ar    1  UNL1        0.1411
      6 N          11.2369   41.7500    7.4372 N.ar    1  UNL1       -0.2159
      7 N          11.0345   40.7373    9.5525 N.ar    1  UNL1       -0.2349
      8 C           8.9755   41.4514    8.3696 C.3     1  UNL1        0.0746
      9 C           8.5722   42.0384    7.0244 C.3     1  UNL1        0.0104
     10 C           7.0603   42.1850    6.9716 C.3     1  UNL1        0.0178
     11 C           6.5817   43.0554    8.1381 C.3     1  UNL1        0.0725
     12 C           8.4494   42.3335    9.5085 C.3     1  UNL1        0.0800
     13 N           6.9920   42.5231    9.4457 N.3     1  UNL1       -0.2660
     14 C           6.3052   41.2598    9.7058 C.3     1  UNL1        0.1368
     15 C           4.8390   41.4887    9.8518 C.ar    1  UNL1        0.1335
     16 C           2.9723   42.1391   10.6305 C.ar    1  UNL1        0.1186
     17 C           2.7498   41.4142    9.4761 C.ar    1  UNL1        0.0943
     18 N           4.2961   42.1834   10.8676 N.ar    1  UNL1       -0.2281
     19 N           3.9334   41.0025    8.9858 N.ar    1  UNL1       -0.3385
     20 H           4.0985   40.4667    8.1766 H       1  UNL1        0.1672
     21 N          13.3603   42.1217    6.3688 N.pl3   1  UNL1       -0.2820
     22 H          13.0887   41.8046    5.4773 H       1  UNL1        0.1551
     23 C          14.4799   43.0167    6.4106 C.ar    1  UNL1        0.1526
     24 C          16.6094   43.6357    7.2534 C.ar    1  UNL1        0.1210
     25 C          16.6018   44.7707    6.4419 C.ar    1  UNL1        0.1196
     26 C          14.4761   44.1536    5.5995 C.ar    1  UNL1        0.1332
     27 N          15.5501   42.7848    7.2200 N.ar    1  UNL1       -0.2258
     28 N          15.5352   45.0050    5.6325 N.ar    1  UNL1       -0.2378
@<TRIPOS>BOND
     1     1     2    1
     2     2     7   ar
     3     3     4   ar
     4     4    21    1
     5     5     6   ar
     6     8     5    1
     7     8     9    1
     8     9    10    1
     9    10    11    1
    10    11    13    1
    11    12    13    1
    12    12     8    1
    13    14    13    1
    14    14    15    1
    15    16    18   ar
    16    17    19   ar
    17    24    27   ar
    18    25    28   ar
    19    26    23   ar
    20    19    15   ar
    21    21    23    1
    22     2     3   ar
    23     4     6   ar
    24     5     7   ar
    25    15    18   ar
    26    16    17   ar
    27    23    27   ar
    28    24    25   ar
    29    26    28   ar
    30    19    20    1
    31    21    22    1
@<TRIPOS>MOLECULE
Molport-020-278-675 MCULE-1527816601 MCULE-2505562369 PubChem-110255547
 28 31 0 0 0
SMALL
GASTEIGER

@<TRIPOS>ATOM
      1 C          13.6381   39.4829   11.3611 C.3     1  UNL1        0.0522
      2 C          13.1436   39.9942   10.0565 C.ar    1  UNL1        0.0635
      3 C          14.0015   40.6961    9.2127 C.ar    1  UNL1        0.0492
      4 C          13.5086   41.1644    7.9899 C.ar    1  UNL1        0.1358
      5 C          11.3862   40.2366    8.4941 C.ar    1  UNL1        0.1411
      6 N          12.2121   40.9229    7.6608 N.ar    1  UNL1       -0.2159
      7 N          11.8559   39.7763    9.6855 N.ar    1  UNL1       -0.2349
      8 C           9.9709   39.9920    8.0888 C.3     1  UNL1        0.0746
      9 C           9.8229   38.6170    7.4532 C.3     1  UNL1        0.0104
     10 C           8.3757   38.4064    7.0391 C.3     1  UNL1        0.0178
     11 C           7.9408   39.5236    6.0850 C.3     1  UNL1        0.0725
     12 C           9.4945   41.0767    7.1150 C.3     1  UNL1        0.0800
     13 N           8.1093   40.8625    6.6684 N.3     1  UNL1       -0.2660
     14 C           7.1841   41.0380    7.7856 C.3     1  UNL1        0.1368
     15 C           6.7299   42.4561    7.8631 C.ar    1  UNL1        0.1335
     16 C           6.4849   44.4558    8.5378 C.ar    1  UNL1        0.1186
     17 C           5.7125   44.2645    7.4088 C.ar    1  UNL1        0.0943
     18 N           7.1269   43.3087    8.8248 N.ar    1  UNL1       -0.2281
     19 N           5.8685   42.9970    6.9845 N.ar    1  UNL1       -0.3385
     20 H           5.4472   42.5642    6.2071 H       1  UNL1        0.1672
     21 N          14.3319   41.8957    7.0703 N.pl3   1  UNL1       -0.2820
     22 H          14.0290   41.9143    6.1338 H       1  UNL1        0.1551
     23 C          15.5454   42.6028    7.3594 C.ar    1  UNL1        0.1526
     24 C          17.0069   44.4398    7.0166 C.ar    1  UNL1        0.1210
     25 C          17.8891   43.9157    7.9620 C.ar    1  UNL1        0.1196
     26 C          16.4307   42.0816    8.3055 C.ar    1  UNL1        0.1332
     27 N          15.8561   43.7731    6.7365 N.ar    1  UNL1       -0.2258
     28 N          17.5818   42.7479    8.5859 N.ar    1  UNL1       -0.2378
@<TRIPOS>BOND
     1     1     2    1
     2     2     7   ar
     3     3     4   ar
     4     4    21    1
     5     5     6   ar
     6     8     5    1
     7     8     9    1
     8     9    10    1
     9    10    11    1
    10    11    13    1
    11    12    13    1
    12    12     8    1
    13    14    13    1
    14    14    15    1
    15    16    18   ar
    16    17    19   ar
    17    24    27   ar
    18    25    28   ar
    19    26    23   ar
    20    19    15   ar
    21    21    23    1
    22     2     3   ar
    23     4     6   ar
    24     5     7   ar
    25    15    18   ar
    26    16    17   ar
    27    23    27   ar
    28    24    25   ar
    29    26    28   ar
    30    19    20    1
    31    21    22    1
@<TRIPOS>MOLECULE
Molport-020-278-675 MCULE-1527816601 MCULE-2505562369 PubChem-110255547
 28 31 0 0 0
SMALL
GASTEIGER

@<TRIPOS>ATOM
      1 C          10.1084   39.9496    4.1626 C.3     1  UNL1        0.0522
      2 C          10.5714   40.6318    5.3987 C.ar    1  UNL1        0.0635
      3 C          11.9325   40.8367    5.6135 C.ar    1  UNL1        0.0492
      4 C          12.3391   41.4831    6.7858 C.ar    1  UNL1        0.1358
      5 C          10.0742   41.6841    7.4563 C.ar    1  UNL1        0.1411
      6 N          11.3990   41.8910    7.6789 N.ar    1  UNL1       -0.2159
      7 N           9.6681   41.0569    6.3189 N.ar    1  UNL1       -0.2349
      8 C           9.0777   42.1527    8.4636 C.3     1  UNL1        0.0746
      9 C           9.7766   42.6547    9.7191 C.3     1  UNL1        0.0104
     10 C           8.7348   43.1092   10.7282 C.3     1  UNL1        0.0178
     11 C           7.7722   41.9574   11.0353 C.3     1  UNL1        0.0725
     12 C           8.1008   41.0254    8.8194 C.3     1  UNL1        0.0800
     13 N           7.1130   41.4351    9.8294 N.3     1  UNL1       -0.2660
     14 C           6.2134   42.4457    9.2774 C.3     1  UNL1        0.1368
     15 C           4.7946   42.0857    9.5615 C.ar    1  UNL1        0.1335
     16 C           2.8931   41.9924   10.5045 C.ar    1  UNL1        0.1186
     17 C           2.8853   41.1699    9.3950 C.ar    1  UNL1        0.0943
     18 N           4.1038   42.5700   10.6091 N.ar    1  UNL1       -0.2281
     19 N           4.0910   41.2298    8.8005 N.ar    1  UNL1       -0.3385
     20 H           4.3899   40.7547    7.9917 H       1  UNL1        0.1672
     21 N          13.7225   41.7279    7.0762 N.pl3   1  UNL1       -0.2820
     22 H          14.1896   41.0315    7.5920 H       1  UNL1        0.1551
     23 C          14.5027   42.8710    6.7010 C.ar    1  UNL1        0.1526
     24 C          16.4482   44.2127    6.9095 C.ar    1  UNL1        0.1210
     25 C          15.9557   45.0801    5.9338 C.ar    1  UNL1        0.1196
     26 C          14.0134   43.7413    5.7245 C.ar    1  UNL1        0.1332
     27 N          15.7122   43.1287    7.2710 N.ar    1  UNL1       -0.2258
     28 N          14.7489   44.8256    5.3625 N.ar    1  UNL1       -0.2378
@<TRIPOS>BOND
     1     1     2    1
     2     2     7   ar
     3     3     4   ar
     4     4    21    1
     5     5     6   ar
     6     8     5    1
     7     8     9    1
     8     9    10    1
     9    10    11    1
    10    11    13    1
    11    12    13    1
    12    12     8    1
    13    14    13    1
    14    14    15    1
    15    16    18   ar
    16    17    19   ar
    17    24    27   ar
    18    25    28   ar
    19    26    23   ar
    20    19    15   ar
    21    21    23    1
    22     2     3   ar
    23     4     6   ar
    24     5     7   ar
    25    15    18   ar
    26    16    17   ar
    27    23    27   ar
    28    24    25   ar
    29    26    28   ar
    30    19    20    1
    31    21    22    1
@<TRIPOS>MOLECULE
Molport-020-278-675 MCULE-1527816601 MCULE-2505562369 PubChem-110255547
 28 31 0 0 0
SMALL
GASTEIGER

@<TRIPOS>ATOM
      1 C          13.4881   39.0204   11.6443 C.3     1  UNL1        0.0522
      2 C          13.2465   39.8574   10.4405 C.ar    1  UNL1        0.0635
      3 C          14.3223   40.3189    9.6853 C.ar    1  UNL1        0.0492
      4 C          14.0644   41.1039    8.5562 C.ar    1  UNL1        0.1358
      5 C          11.7372   40.9365    8.9756 C.ar    1  UNL1        0.1411
      6 N          12.7772   41.3935    8.2292 N.ar    1  UNL1       -0.2159
      7 N          11.9771   40.1716   10.0754 N.ar    1  UNL1       -0.2349
      8 C          10.3402   41.2768    8.5760 C.3     1  UNL1        0.0746
      9 C           9.6140   41.9874    9.7093 C.3     1  UNL1        0.0104
     10 C           8.1924   42.3054    9.2757 C.3     1  UNL1        0.0178
     11 C           7.4754   41.0165    8.8608 C.3     1  UNL1        0.0725
     12 C           9.5733   40.0125    8.1695 C.3     1  UNL1        0.0800
     13 N           8.1808   40.2970    7.7902 N.3     1  UNL1       -0.2660
     14 C           8.1415   41.0788    6.5563 C.3     1  UNL1        0.1368
     15 C           8.8450   40.3518    5.4609 C.ar    1  UNL1        0.1335
     16 C           9.3491   38.8550    4.0399 C.ar    1  UNL1        0.1186
     17 C          10.2687   39.8820    3.9562 C.ar    1  UNL1        0.0943
     18 N           8.4494   39.1537    4.9947 N.ar    1  UNL1       -0.2281
     19 N           9.9479   40.8279    4.8580 N.ar    1  UNL1       -0.3385
     20 H          10.4151   41.6761    5.0358 H       1  UNL1        0.1672
     21 N          15.1205   41.6158    7.7311 N.pl3   1  UNL1       -0.2820
     22 H          15.9189   41.0468    7.6420 H       1  UNL1        0.1551
     23 C          15.1460   42.8615    7.0213 C.ar    1  UNL1        0.1526
     24 C          16.2699   44.8356    6.3374 C.ar    1  UNL1        0.1210
     25 C          15.1342   45.2401    5.6349 C.ar    1  UNL1        0.1196
     26 C          14.0113   43.2695    6.3167 C.ar    1  UNL1        0.1332
     27 N          16.2511   43.6570    7.0140 N.ar    1  UNL1       -0.2258
     28 N          14.0295   44.4482    5.6399 N.ar    1  UNL1       -0.2378
@<TRIPOS>BOND
     1     1     2    1
     2     2     7   ar
     3     3     4   ar
     4     4    21    1
     5     5     6   ar
     6     8     5    1
     7     8     9    1
     8     9    10    1
     9    10    11    1
    10    11    13    1
    11    12    13    1
    12    12     8    1
    13    14    13    1
    14    14    15    1
    15    16    18   ar
    16    17    19   ar
    17    24    27   ar
    18    25    28   ar
    19    26    23   ar
    20    19    15   ar
    21    21    23    1
    22     2     3   ar
    23     4     6   ar
    24     5     7   ar
    25    15    18   ar
    26    16    17   ar
    27    23    27   ar
    28    24    25   ar
    29    26    28   ar
    30    19    20    1
    31    21    22    1
@<TRIPOS>MOLECULE
Molport-020-278-675 MCULE-1527816601 MCULE-2505562369 PubChem-110255547
 28 31 0 0 0
SMALL
GASTEIGER

@<TRIPOS>ATOM
      1 C          16.0174   43.9538    6.7382 C.3     1  UNL1        0.0522
      2 C          14.9271   42.9688    6.9596 C.ar    1  UNL1        0.0635
      3 C          13.7293   43.0857    6.2581 C.ar    1  UNL1        0.0492
      4 C          12.7210   42.1429    6.4861 C.ar    1  UNL1        0.1358
      5 C          14.1109   41.0422    8.0596 C.ar    1  UNL1        0.1411
      6 N          12.9371   41.1438    7.3820 N.ar    1  UNL1       -0.2159
      7 N          15.0984   41.9537    7.8448 N.ar    1  UNL1       -0.2349
      8 C          14.3046   39.9260    9.0311 C.3     1  UNL1        0.0746
      9 C          13.1241   39.8337    9.9874 C.3     1  UNL1        0.0104
     10 C          13.3599   38.6991   10.9709 C.3     1  UNL1        0.0178
     11 C          14.6794   38.9240   11.7165 C.3     1  UNL1        0.0725
     12 C          15.6068   40.1171    9.8183 C.3     1  UNL1        0.0800
     13 N          15.8277   39.0508   10.8073 N.3     1  UNL1       -0.2660
     14 C          16.0712   37.7774   10.1334 C.3     1  UNL1        0.1368
     15 C          17.5203   37.4305   10.1910 C.ar    1  UNL1        0.1335
     16 C          19.3395   36.4721   10.7254 C.ar    1  UNL1        0.1186
     17 C          19.6131   37.4903    9.8332 C.ar    1  UNL1        0.0943
     18 N          18.0137   36.4372   10.9520 N.ar    1  UNL1       -0.2281
     19 N          18.4595   38.0964    9.4975 N.ar    1  UNL1       -0.3385
     20 H          18.3324   38.8553    8.8834 H       1  UNL1        0.1672
     21 N          11.4611   42.1995    5.8023 N.pl3   1  UNL1       -0.2820
     22 H          11.1113   43.0986    5.6064 H       1  UNL1        0.1551
     23 C          10.6530   41.0960    5.3715 C.ar    1  UNL1        0.1526
     24 C          10.2144   39.3058    3.8778 C.ar    1  UNL1        0.1210
     25 C           9.0628   38.9859    4.5978 C.ar    1  UNL1        0.1196
     26 C           9.4998   40.7725    6.0898 C.ar    1  UNL1        0.1332
     27 N          10.9832   40.3521    4.2798 N.ar    1  UNL1       -0.2258
     28 N           8.7305   39.7263    5.6882 N.ar    1  UNL1       -0.2378
@<TRIPOS>BOND
     1     1     2    1
     2     2     7   ar
     3     3     4   ar
     4     4    21    1
     5     5     6   ar
     6     8     5    1
     7     8     9    1
     8     9    10    1
     9    10    11    1
    10    11    13    1
    11    12    13    1
    12    12     8    1
    13    14    13    1
    14    14    15    1
    15    16    18   ar
    16    17    19   ar
    17    24    27   ar
    18    25    28   ar
    19    26    23   ar
    20    19    15   ar
    21    21    23    1
    22     2     3   ar
    23     4     6   ar
    24     5     7   ar
    25    15    18   ar
    26    16    17   ar
    27    23    27   ar
    28    24    25   ar
    29    26    28   ar
    30    19    20    1
    31    21    22    1
@<TRIPOS>MOLECULE
Molport-020-278-675 MCULE-1527816601 MCULE-2505562369 PubChem-110255547
 28 31 0 0 0
SMALL
GASTEIGER

@<TRIPOS>ATOM
      1 C          12.4325   40.0247   10.8934 C.3     1  UNL1        0.0522
      2 C          12.0808   40.6884    9.6113 C.ar    1  UNL1        0.0635
      3 C          13.0839   41.0423    8.7117 C.ar    1  UNL1        0.0492
      4 C          12.7228   41.6647    7.5118 C.ar    1  UNL1        0.1358
      5 C          10.4412   41.5556    8.1457 C.ar    1  UNL1        0.1411
      6 N          11.4094   41.9062    7.2585 N.ar    1  UNL1       -0.2159
      7 N          10.7816   40.9491    9.3155 N.ar    1  UNL1       -0.2349
      8 C           9.0117   41.8373    7.8230 C.3     1  UNL1        0.0746
      9 C           8.8796   42.4114    6.4196 C.3     1  UNL1        0.0104
     10 C           7.4159   42.7006    6.1292 C.3     1  UNL1        0.0178
     11 C           6.8549   43.6545    7.1888 C.3     1  UNL1        0.0725
     12 C           8.4092   42.8065    8.8476 C.3     1  UNL1        0.0800
     13 N           7.0050   43.1329    8.5550 N.3     1  UNL1       -0.2660
     14 C           6.1631   41.9517    8.7315 C.3     1  UNL1        0.1368
     15 C           6.5834   40.8721    7.7928 C.ar    1  UNL1        0.1335
     16 C           7.6445   39.2300    6.9613 C.ar    1  UNL1        0.1186
     17 C           6.6709   39.6342    6.0690 C.ar    1  UNL1        0.0943
     18 N           7.5886   40.0165    8.0516 N.ar    1  UNL1       -0.2281
     19 N           6.0014   40.6750    6.5975 N.ar    1  UNL1       -0.3385
     20 H           5.2547   41.1779    6.1990 H       1  UNL1        0.1672
     21 N          13.6998   42.0589    6.5380 N.pl3   1  UNL1       -0.2820
     22 H          13.5339   41.7691    5.6119 H       1  UNL1        0.1551
     23 C          14.8904   42.8268    6.7594 C.ar    1  UNL1        0.1526
     24 C          16.2368   44.7335    6.3351 C.ar    1  UNL1        0.1210
     25 C          17.1948   44.2576    7.2312 C.ar    1  UNL1        0.1196
     26 C          15.8513   42.3541    7.6558 C.ar    1  UNL1        0.1332
     27 N          15.1073   44.0089    6.1193 N.ar    1  UNL1       -0.2258
     28 N          16.9811   43.0781    7.8721 N.ar    1  UNL1       -0.2378
@<TRIPOS>BOND
     1     1     2    1
     2     2     7   ar
     3     3     4   ar
     4     4    21    1
     5     5     6   ar
     6     8     5    1
     7     8     9    1
     8     9    10    1
     9    10    11    1
    10    11    13    1
    11    12    13    1
    12    12     8    1
    13    14    13    1
    14    14    15    1
    15    16    18   ar
    16    17    19   ar
    17    24    27   ar
    18    25    28   ar
    19    26    23   ar
    20    19    15   ar
    21    21    23    1
    22     2     3   ar
    23     4     6   ar
    24     5     7   ar
    25    15    18   ar
    26    16    17   ar
    27    23    27   ar
    28    24    25   ar
    29    26    28   ar
    30    19    20    1
    31    21    22    1
@<TRIPOS>MOLECULE
Molport-020-278-675 MCULE-1527816601 MCULE-2505562369 PubChem-110255547
 28 31 0 0 0
SMALL
GASTEIGER

@<TRIPOS>ATOM
      1 C          10.2303   39.6944    3.4915 C.3     1  UNL1        0.0522
      2 C          10.4117   40.4342    4.7674 C.ar    1  UNL1        0.0635
      3 C          11.6912   40.6349    5.2807 C.ar    1  UNL1        0.0492
      4 C          11.8315   41.3362    6.4831 C.ar    1  UNL1        0.1358
      5 C           9.4783   41.5962    6.6022 C.ar    1  UNL1        0.1411
      6 N          10.7207   41.7997    7.1146 N.ar    1  UNL1       -0.2159
      7 N           9.3308   40.9159    5.4329 N.ar    1  UNL1       -0.2349
      8 C           8.2876   42.1269    7.3288 C.3     1  UNL1        0.0746
      9 C           7.3774   42.8955    6.3814 C.3     1  UNL1        0.0104
     10 C           6.1850   43.4343    7.1547 C.3     1  UNL1        0.0178
     11 C           6.6707   44.3115    8.3133 C.3     1  UNL1        0.0725
     12 C           8.7233   43.0298    8.4893 C.3     1  UNL1        0.0800
     13 N           7.5797   43.5965    9.2209 N.3     1  UNL1       -0.2660
     14 C           6.8531   42.5402    9.9218 C.3     1  UNL1        0.1368
     15 C           7.7139   41.9325   10.9767 C.ar    1  UNL1        0.1335
     16 C           8.3208   40.9857   12.7793 C.ar    1  UNL1        0.1186
     17 C           9.4411   41.2803   12.0271 C.ar    1  UNL1        0.0943
     18 N           7.2282   41.4013   12.1130 N.ar    1  UNL1       -0.2281
     19 N           9.0540   41.8809   10.8868 N.ar    1  UNL1       -0.3385
     20 H           9.6232   42.2083   10.1533 H       1  UNL1        0.1672
     21 N          13.1162   41.5804    7.0732 N.pl3   1  UNL1       -0.2820
     22 H          13.4052   40.9447    7.7671 H       1  UNL1        0.1551
     23 C          14.0275   42.6445    6.7677 C.ar    1  UNL1        0.1526
     24 C          14.5179   44.7206    5.7295 C.ar    1  UNL1        0.1210
     25 C          15.8227   44.6589    6.2201 C.ar    1  UNL1        0.1196
     26 C          15.3342   42.5865    7.2572 C.ar    1  UNL1        0.1332
     27 N          13.6501   43.7138    6.0137 N.ar    1  UNL1       -0.2258
     28 N          16.2025   43.5930    6.9733 N.ar    1  UNL1       -0.2378
@<TRIPOS>BOND
     1     1     2    1
     2     2     7   ar
     3     3     4   ar
     4     4    21    1
     5     5     6   ar
     6     8     5    1
     7     8     9    1
     8     9    10    1
     9    10    11    1
    10    11    13    1
    11    12    13    1
    12    12     8    1
    13    14    13    1
    14    14    15    1
    15    16    18   ar
    16    17    19   ar
    17    24    27   ar
    18    25    28   ar
    19    26    23   ar
    20    19    15   ar
    21    21    23    1
    22     2     3   ar
    23     4     6   ar
    24     5     7   ar
    25    15    18   ar
    26    16    17   ar
    27    23    27   ar
    28    24    25   ar
    29    26    28   ar
    30    19    20    1
    31    21    22    1
@<TRIPOS>MOLECULE
Molport-020-278-675 MCULE-1527816601 MCULE-2505562369 PubChem-110255547
 28 31 0 0 0
SMALL
GASTEIGER

@<TRIPOS>ATOM
      1 C          13.7100   38.9420   11.7537 C.3     1  UNL1        0.0522
      2 C          13.5201   39.6015   10.4358 C.ar    1  UNL1        0.0635
      3 C          14.5909   40.2424    9.8165 C.ar    1  UNL1        0.0492
      4 C          14.3828   40.8536    8.5753 C.ar    1  UNL1        0.1358
      5 C          12.1115   40.1769    8.6267 C.ar    1  UNL1        0.1411
      6 N          13.1472   40.8057    8.0108 N.ar    1  UNL1       -0.2159
      7 N          12.3033   39.5787    9.8339 N.ar    1  UNL1       -0.2349
      8 C          10.7731   40.1466    7.9671 C.3     1  UNL1        0.0746
      9 C          10.9047   39.7645    6.4997 C.3     1  UNL1        0.0104
     10 C           9.5281   39.7579    5.8554 C.3     1  UNL1        0.0178
     11 C           8.8670   41.1292    6.0287 C.3     1  UNL1        0.0725
     12 C          10.0778   41.5074    8.0970 C.3     1  UNL1        0.0800
     13 N           8.7625   41.5320    7.4388 N.3     1  UNL1       -0.2660
     14 C           7.8291   40.6525    8.1391 C.3     1  UNL1        0.1368
     15 C           6.7118   41.4465    8.7261 C.ar    1  UNL1        0.1335
     16 C           5.2250   42.9423    8.9826 C.ar    1  UNL1        0.1186
     17 C           5.2144   42.1051   10.0810 C.ar    1  UNL1        0.0943
     18 N           6.1754   42.5245    8.1267 N.ar    1  UNL1       -0.2281
     19 N           6.1577   41.1596    9.9166 N.ar    1  UNL1       -0.3385
     20 H           6.3895   40.4246   10.5293 H       1  UNL1        0.1672
     21 N          15.4367   41.5333    7.8784 N.pl3   1  UNL1       -0.2820
     22 H          16.3206   41.1001    7.8952 H       1  UNL1        0.1551
     23 C          15.3497   42.7713    7.1603 C.ar    1  UNL1        0.1526
     24 C          16.3525   44.7337    6.2817 C.ar    1  UNL1        0.1210
     25 C          15.1190   45.1353    5.7680 C.ar    1  UNL1        0.1196
     26 C          14.1169   43.1764    6.6442 C.ar    1  UNL1        0.1332
     27 N          16.4409   43.5623    6.9654 N.ar    1  UNL1       -0.2258
     28 N          14.0279   44.3478    5.9604 N.ar    1  UNL1       -0.2378
@<TRIPOS>BOND
     1     1     2    1
     2     2     7   ar
     3     3     4   ar
     4     4    21    1
     5     5     6   ar
     6     8     5    1
     7     8     9    1
     8     9    10    1
     9    10    11    1
    10    11    13    1
    11    12    13    1
    12    12     8    1
    13    14    13    1
    14    14    15    1
    15    16    18   ar
    16    17    19   ar
    17    24    27   ar
    18    25    28   ar
    19    26    23   ar
    20    19    15   ar
    21    21    23    1
    22     2     3   ar
    23     4     6   ar
    24     5     7   ar
    25    15    18   ar
    26    16    17   ar
    27    23    27   ar
    28    24    25   ar
    29    26    28   ar
    30    19    20    1
    31    21    22    1
