@<TRIPOS>MOLECULE
MolPort-008-321-378 36354451 CSSS00160725062 LN00875969 MCULE-2342485604 PubChem-45491543 ZINC000036354451 ZINC36354451
 34 38 0 0 0
SMALL
GASTEIGER

@<TRIPOS>ATOM
      1 C           9.1316   41.0651   10.4118 C.ar    1  UNL1        0.0516
      2 C           9.8681   40.9237   11.5961 C.ar    1  UNL1        0.0148
      3 C          11.2588   40.8058   11.5519 C.ar    1  UNL1        0.0025
      4 C          11.9225   40.8278   10.3233 C.ar    1  UNL1        0.0146
      5 C          11.2039   40.9695    9.1247 C.ar    1  UNL1        0.0494
      6 C           9.8048   41.0874    9.1862 C.ar    1  UNL1        0.0292
      7 C          11.3620   41.8071    6.7556 C.3     1  UNL1        0.0932
      8 C          12.3209   41.8928    5.5711 C.3     1  UNL1        0.0459
      9 C          13.5013   42.8079    5.8833 C.3     1  UNL1        0.1090
     10 C          14.2949   41.1749    7.7043 C.ar    1  UNL1        0.1406
     11 C          13.1327   40.2379    7.6879 C.3     1  UNL1        0.1556
     12 C          16.1296   42.0613    8.2671 C.ar    1  UNL1        0.0984
     13 C          17.3455   42.3950    8.8584 C.ar    1  UNL1        0.0206
     14 C          17.9942   43.5558    8.3963 C.ar    1  UNL1        0.0016
     15 C          17.4189   44.3422    7.3732 C.ar    1  UNL1        0.0016
     16 C          16.1873   43.9778    6.7979 C.ar    1  UNL1        0.0188
     17 C          15.5738   42.8211    7.2792 C.ar    1  UNL1        0.0786
     18 N          11.8872   40.9875    7.8553 N.pl3   1  UNL1       -0.3010
     19 N          14.4104   42.2714    6.9029 N.ar    1  UNL1       -0.3135
     20 N          15.3396   41.0120    8.5574 N.ar    1  UNL1       -0.2292
     21 C           6.8841   41.6636   11.4901 C.2     1  UNL1        0.2707
     22 O           7.3909   42.0589   12.5722 O.2     1  UNL1       -0.2707
     23 N           7.7027   41.1846   10.4150 N.am    1  UNL1       -0.2808
     24 H           7.2352   40.9091    9.5935 H       1  UNL1        0.1550
     25 C           5.4075   41.7080   11.3198 C.3     1  UNL1        0.2898
     26 O           5.0838   41.6834    9.9357 O.3     1  UNL1       -0.4625
     27 C           3.6629   43.3697    8.9447 C.ar    1  UNL1        0.1724
     28 C           4.9462   42.8454    9.1689 C.ar    1  UNL1        0.1729
     29 C           6.0655   43.4898    8.6161 C.ar    1  UNL1        0.0401
     30 C           5.9086   44.6436    7.8456 C.ar    1  UNL1        0.0033
     31 C           4.6331   45.1639    7.6211 C.ar    1  UNL1        0.0033
     32 C           3.5147   44.5305    8.1676 C.ar    1  UNL1        0.0400
     33 C           2.6661   41.5520   10.2985 C.3     1  UNL1        0.2526
     34 O           2.5536   42.7214    9.4984 O.3     1  UNL1       -0.4684
@<TRIPOS>BOND
     1    33    34    1
     2    27    34    1
     3    28    26    1
     4    28    29   ar
     5    25    26    1
     6    25    21    1
     7    21    23   am
     8     2     3   ar
     9     4     5   ar
    10     5    18    1
    11     6     1   ar
    12     7    18    1
    13     7     8    1
    14     8     9    1
    15     9    19    1
    16    11    10    1
    17    11    18    1
    18    12    20   ar
    19    13    14   ar
    20    15    16   ar
    21    17    12   ar
    22    17    19   ar
    23    30    31   ar
    24    32    27   ar
    25    23     1    1
    26    19    10   ar
    27    27    28   ar
    28    21    22    2
    29     1     2   ar
    30     3     4   ar
    31     5     6   ar
    32    10    20   ar
    33    12    13   ar
    34    14    15   ar
    35    16    17   ar
    36    29    30   ar
    37    31    32   ar
    38    23    24    1
@<TRIPOS>MOLECULE
MolPort-008-321-378 36354451 CSSS00160725062 LN00875969 MCULE-2342485604 PubChem-45491543 ZINC000036354451 ZINC36354451
 34 38 0 0 0
SMALL
GASTEIGER

@<TRIPOS>ATOM
      1 C           3.8548   41.4781   11.4339 C.ar    1  UNL1        0.0516
      2 C           3.3725   41.0637   10.1846 C.ar    1  UNL1        0.0148
      3 C           4.2395   40.9520    9.0957 C.ar    1  UNL1        0.0025
      4 C           5.5944   41.2545    9.2483 C.ar    1  UNL1        0.0146
      5 C           6.0986   41.6706   10.4915 C.ar    1  UNL1        0.0494
      6 C           5.2132   41.7776   11.5777 C.ar    1  UNL1        0.0292
      7 C           8.2909   41.2942   11.6712 C.3     1  UNL1        0.0932
      8 C           9.7859   41.5776   11.5515 C.3     1  UNL1        0.0459
      9 C          10.3940   40.8347   10.3655 C.3     1  UNL1        0.1090
     10 C           8.9710   42.2382    8.7476 C.ar    1  UNL1        0.1406
     11 C           8.1295   42.9543    9.7516 C.3     1  UNL1        0.1556
     12 C           9.7261   41.5901    6.8826 C.ar    1  UNL1        0.0984
     13 C           9.9905   41.3691    5.5332 C.ar    1  UNL1        0.0206
     14 C          10.9913   40.4319    5.2137 C.ar    1  UNL1        0.0016
     15 C          11.6892   39.7487    6.2346 C.ar    1  UNL1        0.0016
     16 C          11.3961   39.9942    7.5890 C.ar    1  UNL1        0.0188
     17 C          10.4000   40.9299    7.8685 C.ar    1  UNL1        0.0786
     18 N           7.4962   41.9879   10.6494 N.pl3   1  UNL1       -0.3010
     19 N           9.9397   41.3322    9.0617 N.ar    1  UNL1       -0.3135
     20 N           8.8135   42.4249    7.4111 N.ar    1  UNL1       -0.2292
     21 C           1.6654   42.1425   12.5903 C.2     1  UNL1        0.2707
     22 O           1.1083   42.5420   11.5348 O.2     1  UNL1       -0.2707
     23 N           2.9961   41.6093   12.5747 N.am    1  UNL1       -0.2808
     24 H           3.3580   41.3011   13.4369 H       1  UNL1        0.1550
     25 C           0.9219   42.2130   13.8762 C.3     1  UNL1        0.2898
     26 O           0.5822   43.5640   14.1599 O.3     1  UNL1       -0.4625
     27 C          -0.0994   45.3483   15.6420 C.ar    1  UNL1        0.1724
     28 C           0.3465   44.0295   15.4580 C.ar    1  UNL1        0.1729
     29 C           0.5543   43.2048   16.5762 C.ar    1  UNL1        0.0401
     30 C           0.3227   43.6890   17.8652 C.ar    1  UNL1        0.0033
     31 C          -0.1188   45.0003   18.0483 C.ar    1  UNL1        0.0033
     32 C          -0.3290   45.8270   16.9424 C.ar    1  UNL1        0.0400
     33 C           0.3573   47.4093   14.3480 C.3     1  UNL1        0.2526
     34 O          -0.3033   46.1630   14.5229 O.3     1  UNL1       -0.4684
@<TRIPOS>BOND
     1    33    34    1
     2    27    34    1
     3    28    26    1
     4    28    29   ar
     5    25    26    1
     6    25    21    1
     7    21    23   am
     8     2     3   ar
     9     4     5   ar
    10     5    18    1
    11     6     1   ar
    12     7    18    1
    13     7     8    1
    14     8     9    1
    15     9    19    1
    16    11    10    1
    17    11    18    1
    18    12    20   ar
    19    13    14   ar
    20    15    16   ar
    21    17    12   ar
    22    17    19   ar
    23    30    31   ar
    24    32    27   ar
    25    23     1    1
    26    19    10   ar
    27    27    28   ar
    28    21    22    2
    29     1     2   ar
    30     3     4   ar
    31     5     6   ar
    32    10    20   ar
    33    12    13   ar
    34    14    15   ar
    35    16    17   ar
    36    29    30   ar
    37    31    32   ar
    38    23    24    1
@<TRIPOS>MOLECULE
MolPort-008-321-378 36354451 CSSS00160725062 LN00875969 MCULE-2342485604 PubChem-45491543 ZINC000036354451 ZINC36354451
 34 38 0 0 0
SMALL
GASTEIGER

@<TRIPOS>ATOM
      1 C          14.1874   36.0472    8.9440 C.ar    1  UNL1        0.0516
      2 C          13.4097   35.4210    9.9279 C.ar    1  UNL1        0.0148
      3 C          12.3841   36.1205   10.5672 C.ar    1  UNL1        0.0025
      4 C          12.1295   37.4510   10.2275 C.ar    1  UNL1        0.0146
      5 C          12.8961   38.0972    9.2438 C.ar    1  UNL1        0.0494
      6 C          13.9244   37.3793    8.6094 C.ar    1  UNL1        0.0292
      7 C          12.3965   39.8367    7.4934 C.3     1  UNL1        0.0932
      8 C          11.9162   41.2764    7.3303 C.3     1  UNL1        0.0459
      9 C          10.4630   41.4252    7.7711 C.3     1  UNL1        0.1090
     10 C          11.1302   40.8547   10.1881 C.ar    1  UNL1        0.1406
     11 C          12.5568   40.4869    9.9466 C.3     1  UNL1        0.1556
     12 C           9.2986   41.1694   11.1955 C.ar    1  UNL1        0.0984
     13 C           8.2661   41.2734   12.1242 C.ar    1  UNL1        0.0206
     14 C           7.0049   41.6802   11.6489 C.ar    1  UNL1        0.0016
     15 C           6.8106   41.9655   10.2789 C.ar    1  UNL1        0.0016
     16 C           7.8751   41.8486    9.3659 C.ar    1  UNL1        0.0188
     17 C           9.1106   41.4447    9.8722 C.ar    1  UNL1        0.0786
     18 N          12.6377   39.4722    8.8955 N.pl3   1  UNL1       -0.3010
     19 N          10.2643   41.2571    9.2154 N.ar    1  UNL1       -0.3135
     20 N          10.5692   40.7917   11.4239 N.ar    1  UNL1       -0.2292
     21 C          16.6274   35.7643    8.2103 C.2     1  UNL1        0.2707
     22 O          17.0337   36.7981    8.8022 O.2     1  UNL1       -0.2707
     23 N          15.2519   35.3645    8.2680 N.am    1  UNL1       -0.2808
     24 H          15.0133   34.5351    7.7943 H       1  UNL1        0.1550
     25 C          17.5977   34.9345    7.4478 C.3     1  UNL1        0.2898
     26 O          17.0765   34.6542    6.1551 O.3     1  UNL1       -0.4625
     27 C          16.2465   35.6084    4.0947 C.ar    1  UNL1        0.1724
     28 C          17.2589   35.5091    5.0628 C.ar    1  UNL1        0.1729
     29 C          18.4362   36.2613    4.9156 C.ar    1  UNL1        0.0401
     30 C          18.6051   37.1026    3.8140 C.ar    1  UNL1        0.0033
     31 C          17.5998   37.2002    2.8508 C.ar    1  UNL1        0.0033
     32 C          16.4255   36.4568    2.9895 C.ar    1  UNL1        0.0400
     33 C          15.0311   33.4524    4.0253 C.3     1  UNL1        0.2526
     34 O          15.0775   34.8553    4.2488 O.3     1  UNL1       -0.4684
@<TRIPOS>BOND
     1    33    34    1
     2    27    34    1
     3    28    26    1
     4    28    29   ar
     5    25    26    1
     6    25    21    1
     7    21    23   am
     8     2     3   ar
     9     4     5   ar
    10     5    18    1
    11     6     1   ar
    12     7    18    1
    13     7     8    1
    14     8     9    1
    15     9    19    1
    16    11    10    1
    17    11    18    1
    18    12    20   ar
    19    13    14   ar
    20    15    16   ar
    21    17    12   ar
    22    17    19   ar
    23    30    31   ar
    24    32    27   ar
    25    23     1    1
    26    19    10   ar
    27    27    28   ar
    28    21    22    2
    29     1     2   ar
    30     3     4   ar
    31     5     6   ar
    32    10    20   ar
    33    12    13   ar
    34    14    15   ar
    35    16    17   ar
    36    29    30   ar
    37    31    32   ar
    38    23    24    1
@<TRIPOS>MOLECULE
MolPort-008-321-378 36354451 CSSS00160725062 LN00875969 MCULE-2342485604 PubChem-45491543 ZINC000036354451 ZINC36354451
 34 38 0 0 0
SMALL
GASTEIGER

@<TRIPOS>ATOM
      1 C          11.0134   40.4330    6.8893 C.ar    1  UNL1        0.0516
      2 C          10.4924   39.5048    5.9771 C.ar    1  UNL1        0.0148
      3 C           9.1895   39.6449    5.4948 C.ar    1  UNL1        0.0025
      4 C           8.3984   40.7138    5.9218 C.ar    1  UNL1        0.0146
      5 C           8.9010   41.6557    6.8345 C.ar    1  UNL1        0.0494
      6 C          10.2144   41.5008    7.3101 C.ar    1  UNL1        0.0292
      7 C           7.2369   43.4730    6.3173 C.3     1  UNL1        0.0932
      8 C           6.2737   44.4489    6.9878 C.3     1  UNL1        0.0459
      9 C           5.1260   43.7093    7.6689 C.3     1  UNL1        0.1090
     10 C           6.7843   42.6395    9.3175 C.ar    1  UNL1        0.1406
     11 C           8.0563   43.1162    8.6980 C.3     1  UNL1        0.1556
     12 C           5.4606   41.6334   10.6229 C.ar    1  UNL1        0.0984
     13 C           4.8717   40.8687   11.6270 C.ar    1  UNL1        0.0206
     14 C           3.4669   40.7780   11.6332 C.ar    1  UNL1        0.0016
     15 C           2.6990   41.4411   10.6500 C.ar    1  UNL1        0.0016
     16 C           3.3258   42.2047    9.6476 C.ar    1  UNL1        0.0188
     17 C           4.7188   42.2736    9.6732 C.ar    1  UNL1        0.0786
     18 N           8.0839   42.7569    7.2799 N.pl3   1  UNL1       -0.3010
     19 N           5.5408   42.9244    8.8375 N.ar    1  UNL1       -0.3135
     20 N           6.7731   41.8471   10.4210 N.ar    1  UNL1       -0.2292
     21 C          12.9057   41.0691    8.4976 C.2     1  UNL1        0.2707
     22 O          12.2239   41.9185    9.1284 O.2     1  UNL1       -0.2707
     23 N          12.3444   40.3214    7.4107 N.am    1  UNL1       -0.2808
     24 H          12.9341   39.6629    6.9774 H       1  UNL1        0.1550
     25 C          14.3173   40.8277    8.8980 C.3     1  UNL1        0.2898
     26 O          15.1817   41.1241    7.8089 O.3     1  UNL1       -0.4625
     27 C          16.3760   43.1904    7.4229 C.ar    1  UNL1        0.1724
     28 C          15.2428   42.3881    7.2124 C.ar    1  UNL1        0.1729
     29 C          14.1905   42.8687    6.4152 C.ar    1  UNL1        0.0401
     30 C          14.2646   44.1366    5.8351 C.ar    1  UNL1        0.0033
     31 C          15.3899   44.9348    6.0456 C.ar    1  UNL1        0.0033
     32 C          16.4413   44.4649    6.8358 C.ar    1  UNL1        0.0400
     33 C          17.2800   41.5659    9.0581 C.3     1  UNL1        0.2526
     34 O          17.4191   42.7043    8.2186 O.3     1  UNL1       -0.4684
@<TRIPOS>BOND
     1    33    34    1
     2    27    34    1
     3    28    26    1
     4    28    29   ar
     5    25    26    1
     6    25    21    1
     7    21    23   am
     8     2     3   ar
     9     4     5   ar
    10     5    18    1
    11     6     1   ar
    12     7    18    1
    13     7     8    1
    14     8     9    1
    15     9    19    1
    16    11    10    1
    17    11    18    1
    18    12    20   ar
    19    13    14   ar
    20    15    16   ar
    21    17    12   ar
    22    17    19   ar
    23    30    31   ar
    24    32    27   ar
    25    23     1    1
    26    19    10   ar
    27    27    28   ar
    28    21    22    2
    29     1     2   ar
    30     3     4   ar
    31     5     6   ar
    32    10    20   ar
    33    12    13   ar
    34    14    15   ar
    35    16    17   ar
    36    29    30   ar
    37    31    32   ar
    38    23    24    1
@<TRIPOS>MOLECULE
MolPort-008-321-378 36354451 CSSS00160725062 LN00875969 MCULE-2342485604 PubChem-45491543 ZINC000036354451 ZINC36354451
 34 38 0 0 0
SMALL
GASTEIGER

@<TRIPOS>ATOM
      1 C          13.1225   39.5087    8.9548 C.ar    1  UNL1        0.0516
      2 C          14.0242   40.5370    9.2623 C.ar    1  UNL1        0.0148
      3 C          15.3590   40.2426    9.5476 C.ar    1  UNL1        0.0025
      4 C          15.8012   38.9180    9.5279 C.ar    1  UNL1        0.0146
      5 C          14.9147   37.8725    9.2214 C.ar    1  UNL1        0.0494
      6 C          13.5745   38.1855    8.9362 C.ar    1  UNL1        0.0292
      7 C          14.4078   35.4195    8.9658 C.3     1  UNL1        0.0932
      8 C          15.0828   34.0671    8.7535 C.3     1  UNL1        0.0459
      9 C          15.7372   33.9883    7.3773 C.3     1  UNL1        0.1090
     10 C          17.3877   35.8426    8.0480 C.ar    1  UNL1        0.1406
     11 C          16.7921   36.2072    9.3676 C.3     1  UNL1        0.1556
     12 C          18.6595   35.8784    6.3599 C.ar    1  UNL1        0.0984
     13 C          19.6431   36.1525    5.4128 C.ar    1  UNL1        0.0206
     14 C          19.6305   35.3942    4.2268 C.ar    1  UNL1        0.0016
     15 C          18.6492   34.3990    4.0199 C.ar    1  UNL1        0.0016
     16 C          17.6678   34.1482    4.9968 C.ar    1  UNL1        0.0188
     17 C          17.7116   34.9173    6.1598 C.ar    1  UNL1        0.0786
     18 N          15.3685   36.5042    9.2055 N.pl3   1  UNL1       -0.3010
     19 N          16.8973   34.8740    7.2239 N.ar    1  UNL1       -0.3135
     20 N          18.4774   36.4817    7.5481 N.ar    1  UNL1       -0.2292
     21 C          10.9595   40.8733    9.1323 C.2     1  UNL1        0.2707
     22 O          11.4587   41.7626    9.8698 O.2     1  UNL1       -0.2707
     23 N          11.7436   39.7696    8.6605 N.am    1  UNL1       -0.2808
     24 H          11.2879   39.1238    8.0735 H       1  UNL1        0.1550
     25 C           9.5312   40.9784    8.7318 C.3     1  UNL1        0.2898
     26 O           8.7649   41.4828    9.8179 O.3     1  UNL1       -0.4625
     27 C           6.7013   41.6206   11.0696 C.ar    1  UNL1        0.1724
     28 C           7.3673   41.4297    9.8482 C.ar    1  UNL1        0.1729
     29 C           6.6225   41.1827    8.6828 C.ar    1  UNL1        0.0401
     30 C           5.2284   41.1240    8.7334 C.ar    1  UNL1        0.0033
     31 C           4.5663   41.3120    9.9476 C.ar    1  UNL1        0.0033
     32 C           5.2985   41.5591   11.1110 C.ar    1  UNL1        0.0400
     33 C           8.6217   41.1299   12.5534 C.3     1  UNL1        0.2526
     34 O           7.4506   41.8656   12.2255 O.3     1  UNL1       -0.4684
@<TRIPOS>BOND
     1    33    34    1
     2    27    34    1
     3    28    26    1
     4    28    29   ar
     5    25    26    1
     6    25    21    1
     7    21    23   am
     8     2     3   ar
     9     4     5   ar
    10     5    18    1
    11     6     1   ar
    12     7    18    1
    13     7     8    1
    14     8     9    1
    15     9    19    1
    16    11    10    1
    17    11    18    1
    18    12    20   ar
    19    13    14   ar
    20    15    16   ar
    21    17    12   ar
    22    17    19   ar
    23    30    31   ar
    24    32    27   ar
    25    23     1    1
    26    19    10   ar
    27    27    28   ar
    28    21    22    2
    29     1     2   ar
    30     3     4   ar
    31     5     6   ar
    32    10    20   ar
    33    12    13   ar
    34    14    15   ar
    35    16    17   ar
    36    29    30   ar
    37    31    32   ar
    38    23    24    1
@<TRIPOS>MOLECULE
MolPort-008-321-378 36354451 CSSS00160725062 LN00875969 MCULE-2342485604 PubChem-45491543 ZINC000036354451 ZINC36354451
 34 38 0 0 0
SMALL
GASTEIGER

@<TRIPOS>ATOM
      1 C          11.7007   37.8086    9.8458 C.ar    1  UNL1        0.0516
      2 C          11.2632   36.5683   10.3309 C.ar    1  UNL1        0.0148
      3 C          12.1529   35.4968   10.4313 C.ar    1  UNL1        0.0025
      4 C          13.4858   35.6578   10.0467 C.ar    1  UNL1        0.0146
      5 C          13.9452   36.8923    9.5588 C.ar    1  UNL1        0.0494
      6 C          13.0374   37.9610    9.4643 C.ar    1  UNL1        0.0292
      7 C          16.2158   37.9056    9.9547 C.3     1  UNL1        0.0932
      8 C          17.6764   37.7898    9.5267 C.3     1  UNL1        0.0459
      9 C          18.2812   36.4660    9.9851 C.3     1  UNL1        0.1090
     10 C          16.6746   35.1877    8.4369 C.ar    1  UNL1        0.1406
     11 C          15.8304   36.3357    7.9917 C.3     1  UNL1        0.1556
     12 C          17.3848   33.2098    8.6655 C.ar    1  UNL1        0.0984
     13 C          17.5986   31.8347    8.6124 C.ar    1  UNL1        0.0206
     14 C          18.6525   31.3121    9.3857 C.ar    1  UNL1        0.0016
     15 C          19.4513   32.1633   10.1816 C.ar    1  UNL1        0.0016
     16 C          19.2074   33.5490   10.2141 C.ar    1  UNL1        0.0188
     17 C          18.1562   34.0318    9.4345 C.ar    1  UNL1        0.0786
     18 N          15.3197   37.0588    9.1568 N.pl3   1  UNL1       -0.3010
     19 N          17.7255   35.2941    9.2983 N.ar    1  UNL1       -0.3135
     20 N          16.4370   33.9156    8.0232 N.ar    1  UNL1       -0.2292
     21 C          11.1304   40.3034    9.9975 C.2     1  UNL1        0.2707
     22 O          12.2818   40.6500   10.3695 O.2     1  UNL1       -0.2707
     23 N          10.8173   38.9314    9.7236 N.am    1  UNL1       -0.2808
     24 H           9.9004   38.7404    9.4202 H       1  UNL1        0.1550
     25 C          10.0790   41.3408    9.8256 C.3     1  UNL1        0.2898
     26 O           9.4399   41.1715    8.5670 O.3     1  UNL1       -0.4625
     27 C           8.1514   42.0459    6.7178 C.ar    1  UNL1        0.1724
     28 C           8.4678   42.0551    8.0859 C.ar    1  UNL1        0.1729
     29 C           7.8108   42.9525    8.9442 C.ar    1  UNL1        0.0401
     30 C           6.8497   43.8338    8.4450 C.ar    1  UNL1        0.0033
     31 C           6.5363   43.8260    7.0850 C.ar    1  UNL1        0.0033
     32 C           7.1837   42.9366    6.2244 C.ar    1  UNL1        0.0400
     33 C           8.3184   39.8443    5.5972 C.3     1  UNL1        0.2526
     34 O           8.8109   41.1494    5.8699 O.3     1  UNL1       -0.4684
@<TRIPOS>BOND
     1    33    34    1
     2    27    34    1
     3    28    26    1
     4    28    29   ar
     5    25    26    1
     6    25    21    1
     7    21    23   am
     8     2     3   ar
     9     4     5   ar
    10     5    18    1
    11     6     1   ar
    12     7    18    1
    13     7     8    1
    14     8     9    1
    15     9    19    1
    16    11    10    1
    17    11    18    1
    18    12    20   ar
    19    13    14   ar
    20    15    16   ar
    21    17    12   ar
    22    17    19   ar
    23    30    31   ar
    24    32    27   ar
    25    23     1    1
    26    19    10   ar
    27    27    28   ar
    28    21    22    2
    29     1     2   ar
    30     3     4   ar
    31     5     6   ar
    32    10    20   ar
    33    12    13   ar
    34    14    15   ar
    35    16    17   ar
    36    29    30   ar
    37    31    32   ar
    38    23    24    1
@<TRIPOS>MOLECULE
MolPort-008-321-378 36354451 CSSS00160725062 LN00875969 MCULE-2342485604 PubChem-45491543 ZINC000036354451 ZINC36354451
 34 38 0 0 0
SMALL
GASTEIGER

@<TRIPOS>ATOM
      1 C          11.3284   40.3289    7.1303 C.ar    1  UNL1        0.0516
      2 C          10.8704   39.3792    6.2066 C.ar    1  UNL1        0.0148
      3 C           9.5991   39.5005    5.6419 C.ar    1  UNL1        0.0025
      4 C           8.7768   40.5720    5.9974 C.ar    1  UNL1        0.0146
      5 C           9.2164   41.5353    6.9203 C.ar    1  UNL1        0.0494
      6 C          10.4987   41.3992    7.4793 C.ar    1  UNL1        0.0292
      7 C           7.5494   43.3069    6.2707 C.3     1  UNL1        0.0932
      8 C           6.5465   44.2916    6.8661 C.3     1  UNL1        0.0459
      9 C           5.3828   43.5597    7.5280 C.3     1  UNL1        0.1090
     10 C           6.9882   42.5761    9.2794 C.ar    1  UNL1        0.1406
     11 C           8.2773   43.0495    8.6937 C.3     1  UNL1        0.1556
     12 C           5.6272   41.5979   10.5676 C.ar    1  UNL1        0.0984
     13 C           5.0091   40.8613   11.5750 C.ar    1  UNL1        0.0206
     14 C           3.6066   40.7493   11.5289 C.ar    1  UNL1        0.0016
     15 C           2.8697   41.3644   10.4922 C.ar    1  UNL1        0.0016
     16 C           3.5256   42.1006    9.4880 C.ar    1  UNL1        0.0188
     17 C           4.9154   42.1917    9.5662 C.ar    1  UNL1        0.0786
     18 N           8.3669   42.6393    7.2920 N.pl3   1  UNL1       -0.3010
     19 N           5.7612   42.8242    8.7403 N.ar    1  UNL1       -0.3135
     20 N           6.9437   41.8242   10.4101 N.ar    1  UNL1       -0.2292
     21 C          12.9511   40.4883    9.1086 C.2     1  UNL1        0.2707
     22 O          12.0652   40.8089    9.9432 O.2     1  UNL1       -0.2707
     23 N          12.6252   40.2370    7.7353 N.am    1  UNL1       -0.2808
     24 H          13.3690   39.9741    7.1464 H       1  UNL1        0.1550
     25 C          14.3614   40.3545    9.5607 C.3     1  UNL1        0.2898
     26 O          15.2383   40.5454    8.4581 O.3     1  UNL1       -0.4625
     27 C          15.3845   42.6588    7.2932 C.ar    1  UNL1        0.1724
     28 C          15.9112   41.7496    8.2248 C.ar    1  UNL1        0.1729
     29 C          17.1040   42.0596    8.8992 C.ar    1  UNL1        0.0401
     30 C          17.7672   43.2622    8.6470 C.ar    1  UNL1        0.0033
     31 C          17.2448   44.1652    7.7199 C.ar    1  UNL1        0.0033
     32 C          16.0590   43.8658    7.0455 C.ar    1  UNL1        0.0400
     33 C          13.5396   43.2497    5.7514 C.3     1  UNL1        0.2526
     34 O          14.1965   42.3418    6.6256 O.3     1  UNL1       -0.4684
@<TRIPOS>BOND
     1    33    34    1
     2    27    34    1
     3    28    26    1
     4    28    29   ar
     5    25    26    1
     6    25    21    1
     7    21    23   am
     8     2     3   ar
     9     4     5   ar
    10     5    18    1
    11     6     1   ar
    12     7    18    1
    13     7     8    1
    14     8     9    1
    15     9    19    1
    16    11    10    1
    17    11    18    1
    18    12    20   ar
    19    13    14   ar
    20    15    16   ar
    21    17    12   ar
    22    17    19   ar
    23    30    31   ar
    24    32    27   ar
    25    23     1    1
    26    19    10   ar
    27    27    28   ar
    28    21    22    2
    29     1     2   ar
    30     3     4   ar
    31     5     6   ar
    32    10    20   ar
    33    12    13   ar
    34    14    15   ar
    35    16    17   ar
    36    29    30   ar
    37    31    32   ar
    38    23    24    1
@<TRIPOS>MOLECULE
MolPort-008-321-378 36354451 CSSS00160725062 LN00875969 MCULE-2342485604 PubChem-45491543 ZINC000036354451 ZINC36354451
 34 38 0 0 0
SMALL
GASTEIGER

@<TRIPOS>ATOM
      1 C           4.9687   41.5819   10.3198 C.ar    1  UNL1        0.0516
      2 C           4.4652   40.9539    9.1721 C.ar    1  UNL1        0.0148
      3 C           5.2564   40.8372    8.0275 C.ar    1  UNL1        0.0025
      4 C           6.5562   41.3482    8.0223 C.ar    1  UNL1        0.0146
      5 C           7.0806   41.9804    9.1617 C.ar    1  UNL1        0.0494
      6 C           6.2718   42.0894   10.3059 C.ar    1  UNL1        0.0292
      7 C           8.8367   43.4518   10.2059 C.3     1  UNL1        0.0932
      8 C          10.3365   43.7351   10.1859 C.3     1  UNL1        0.0459
      9 C          11.1282   42.5495   10.7295 C.3     1  UNL1        0.1090
     10 C          10.3493   41.1106    8.7457 C.ar    1  UNL1        0.1406
     11 C           9.3765   42.0685    8.1415 C.3     1  UNL1        0.1556
     12 C          11.4664   39.3449    9.0669 C.ar    1  UNL1        0.0984
     13 C          12.0351   38.0750    9.0103 C.ar    1  UNL1        0.0206
     14 C          12.9593   37.7330   10.0157 C.ar    1  UNL1        0.0016
     15 C          13.2841   38.6535   11.0371 C.ar    1  UNL1        0.0016
     16 C          12.6897   39.9288   11.0663 C.ar    1  UNL1        0.0188
     17 C          11.7800   40.2338   10.0537 C.ar    1  UNL1        0.0786
     18 N           8.4205   42.5127    9.1563 N.pl3   1  UNL1       -0.3010
     19 N          11.0856   41.3649    9.8642 N.ar    1  UNL1       -0.3135
     20 N          10.5609   39.8739    8.2246 N.ar    1  UNL1       -0.2292
     21 C           2.7924   42.0505   11.5911 C.2     1  UNL1        0.2707
     22 O           2.1023   42.2259   10.5533 O.2     1  UNL1       -0.2707
     23 N           4.1865   41.7252   11.5129 N.am    1  UNL1       -0.2808
     24 H           4.6555   41.5858   12.3673 H       1  UNL1        0.1550
     25 C           2.1440   42.1698   12.9240 C.3     1  UNL1        0.2898
     26 O           0.8229   42.6723   12.7710 O.3     1  UNL1       -0.4625
     27 C          -0.1702   43.8370   14.6423 C.ar    1  UNL1        0.1724
     28 C          -0.1030   42.7012   13.8193 C.ar    1  UNL1        0.1729
     29 C          -0.9583   41.6141   14.0655 C.ar    1  UNL1        0.0401
     30 C          -1.8700   41.6566   15.1222 C.ar    1  UNL1        0.0033
     31 C          -1.9358   42.7847   15.9413 C.ar    1  UNL1        0.0033
     32 C          -1.0901   43.8704   15.7034 C.ar    1  UNL1        0.0400
     33 C           0.5397   46.1778   15.0259 C.3     1  UNL1        0.2526
     34 O           0.6856   44.9149   14.3904 O.3     1  UNL1       -0.4684
@<TRIPOS>BOND
     1    33    34    1
     2    27    34    1
     3    28    26    1
     4    28    29   ar
     5    25    26    1
     6    25    21    1
     7    21    23   am
     8     2     3   ar
     9     4     5   ar
    10     5    18    1
    11     6     1   ar
    12     7    18    1
    13     7     8    1
    14     8     9    1
    15     9    19    1
    16    11    10    1
    17    11    18    1
    18    12    20   ar
    19    13    14   ar
    20    15    16   ar
    21    17    12   ar
    22    17    19   ar
    23    30    31   ar
    24    32    27   ar
    25    23     1    1
    26    19    10   ar
    27    27    28   ar
    28    21    22    2
    29     1     2   ar
    30     3     4   ar
    31     5     6   ar
    32    10    20   ar
    33    12    13   ar
    34    14    15   ar
    35    16    17   ar
    36    29    30   ar
    37    31    32   ar
    38    23    24    1
@<TRIPOS>MOLECULE
MolPort-008-321-378 36354451 CSSS00160725062 LN00875969 MCULE-2342485604 PubChem-45491543 ZINC000036354451 ZINC36354451
 34 38 0 0 0
SMALL
GASTEIGER

@<TRIPOS>ATOM
      1 C          12.1286   40.7533   10.0714 C.ar    1  UNL1        0.0516
      2 C          11.6934   40.7265   11.4037 C.ar    1  UNL1        0.0148
      3 C          10.3417   40.9006   11.7077 C.ar    1  UNL1        0.0025
      4 C           9.4160   41.1034   10.6817 C.ar    1  UNL1        0.0146
      5 C           9.8306   41.1329    9.3400 C.ar    1  UNL1        0.0494
      6 C          11.1944   40.9556    9.0506 C.ar    1  UNL1        0.0292
      7 C           8.6417   40.2917    7.2861 C.3     1  UNL1        0.0932
      8 C           7.4486   40.5866    6.3809 C.3     1  UNL1        0.0459
      9 C           6.1309   40.3834    7.1229 C.3     1  UNL1        0.1090
     10 C           6.7074   42.3346    8.6955 C.ar    1  UNL1        0.1406
     11 C           8.1047   42.5890    8.2352 C.3     1  UNL1        0.1556
     12 C           4.9195   42.4922    9.8123 C.ar    1  UNL1        0.0984
     13 C           3.9101   42.8353   10.7084 C.ar    1  UNL1        0.0206
     14 C           2.7113   42.0998   10.6471 C.ar    1  UNL1        0.0016
     15 C           2.5555   41.0553    9.7086 C.ar    1  UNL1        0.0016
     16 C           3.5963   40.7328    8.8180 C.ar    1  UNL1        0.0188
     17 C           4.7690   41.4832    8.9060 C.ar    1  UNL1        0.0786
     18 N           8.8769   41.3469    8.2801 N.pl3   1  UNL1       -0.3010
     19 N           5.8917   41.3709    8.1819 N.ar    1  UNL1       -0.3135
     20 N           6.1391   43.0486    9.7020 N.ar    1  UNL1       -0.2292
     21 C          14.5052   39.8790   10.4708 C.2     1  UNL1        0.2707
     22 O          14.2231   39.3047   11.5547 O.2     1  UNL1       -0.2707
     23 N          13.5080   40.5828    9.7188 N.am    1  UNL1       -0.2808
     24 H          13.8006   40.9916    8.8724 H       1  UNL1        0.1550
     25 C          15.8982   39.8134    9.9544 C.3     1  UNL1        0.2898
     26 O          15.9371   40.2971    8.6181 O.3     1  UNL1       -0.4625
     27 C          15.3690   42.3795    7.5294 C.ar    1  UNL1        0.1724
     28 C          16.2637   41.6198    8.3003 C.ar    1  UNL1        0.1729
     29 C          17.4701   42.1958    8.7321 C.ar    1  UNL1        0.0401
     30 C          17.7839   43.5147    8.3977 C.ar    1  UNL1        0.0033
     31 C          16.8956   44.2694    7.6301 C.ar    1  UNL1        0.0033
     32 C          15.6934   43.7053    7.1973 C.ar    1  UNL1        0.0400
     33 C          13.2588   42.4608    6.2369 C.3     1  UNL1        0.2526
     34 O          14.1700   41.7979    7.1030 O.3     1  UNL1       -0.4684
@<TRIPOS>BOND
     1    33    34    1
     2    27    34    1
     3    28    26    1
     4    28    29   ar
     5    25    26    1
     6    25    21    1
     7    21    23   am
     8     2     3   ar
     9     4     5   ar
    10     5    18    1
    11     6     1   ar
    12     7    18    1
    13     7     8    1
    14     8     9    1
    15     9    19    1
    16    11    10    1
    17    11    18    1
    18    12    20   ar
    19    13    14   ar
    20    15    16   ar
    21    17    12   ar
    22    17    19   ar
    23    30    31   ar
    24    32    27   ar
    25    23     1    1
    26    19    10   ar
    27    27    28   ar
    28    21    22    2
    29     1     2   ar
    30     3     4   ar
    31     5     6   ar
    32    10    20   ar
    33    12    13   ar
    34    14    15   ar
    35    16    17   ar
    36    29    30   ar
    37    31    32   ar
    38    23    24    1
@<TRIPOS>MOLECULE
MolPort-008-321-378 36354451 CSSS00160725062 LN00875969 MCULE-2342485604 PubChem-45491543 ZINC000036354451 ZINC36354451
 34 38 0 0 0
SMALL
GASTEIGER

@<TRIPOS>ATOM
      1 C          11.4098   41.8687    8.7816 C.ar    1  UNL1        0.0516
      2 C          12.4062   42.4756    8.0045 C.ar    1  UNL1        0.0148
      3 C          13.6470   41.8567    7.8398 C.ar    1  UNL1        0.0025
      4 C          13.9003   40.6270    8.4516 C.ar    1  UNL1        0.0146
      5 C          12.9157   40.0011    9.2337 C.ar    1  UNL1        0.0494
      6 C          11.6719   40.6367    9.3893 C.ar    1  UNL1        0.0292
      7 C          12.6154   37.5021    9.3010 C.3     1  UNL1        0.0932
      8 C          13.1727   36.2404    9.9547 C.3     1  UNL1        0.0459
      9 C          14.6040   35.9708    9.4998 C.3     1  UNL1        0.1090
     10 C          15.3857   38.1315   10.6542 C.ar    1  UNL1        0.1406
     11 C          14.0503   38.6745   11.0427 C.3     1  UNL1        0.1556
     12 C          17.4785   37.9933   10.3908 C.ar    1  UNL1        0.0984
     13 C          18.8558   38.1990   10.3698 C.ar    1  UNL1        0.0206
     14 C          19.6482   37.2186    9.7430 C.ar    1  UNL1        0.0016
     15 C          19.0531   36.0774    9.1604 C.ar    1  UNL1        0.0016
     16 C          17.6574   35.9007    9.1975 C.ar    1  UNL1        0.0188
     17 C          16.9039   36.8911    9.8278 C.ar    1  UNL1        0.0786
     18 N          13.1773   38.7340    9.8699 N.pl3   1  UNL1       -0.3010
     19 N          15.5746   36.9563    9.9901 N.ar    1  UNL1       -0.3135
     20 N          16.5395   38.7973   10.9210 N.ar    1  UNL1       -0.2292
     21 C           9.8027   43.5228    9.9010 C.2     1  UNL1        0.2707
     22 O          10.6821   44.0371   10.6400 O.2     1  UNL1       -0.2707
     23 N          10.1250   42.4741    8.9781 N.am    1  UNL1       -0.2808
     24 H           9.3874   42.1343    8.4215 H       1  UNL1        0.1550
     25 C           8.4047   44.0237    9.9781 C.3     1  UNL1        0.2898
     26 O           7.4980   42.9421    9.8073 O.3     1  UNL1       -0.4625
     27 C           6.7182   43.0412    7.5211 C.ar    1  UNL1        0.1724
     28 C           7.2930   42.3125    8.5749 C.ar    1  UNL1        0.1729
     29 C           7.6449   40.9668    8.3772 C.ar    1  UNL1        0.0401
     30 C           7.4246   40.3520    7.1431 C.ar    1  UNL1        0.0033
     31 C           6.8517   41.0756    6.0962 C.ar    1  UNL1        0.0033
     32 C           6.4996   42.4141    6.2833 C.ar    1  UNL1        0.0400
     33 C           5.0247   44.8383    7.7030 C.3     1  UNL1        0.2526
     34 O           6.3701   44.3807    7.7267 O.3     1  UNL1       -0.4684
@<TRIPOS>BOND
     1    33    34    1
     2    27    34    1
     3    28    26    1
     4    28    29   ar
     5    25    26    1
     6    25    21    1
     7    21    23   am
     8     2     3   ar
     9     4     5   ar
    10     5    18    1
    11     6     1   ar
    12     7    18    1
    13     7     8    1
    14     8     9    1
    15     9    19    1
    16    11    10    1
    17    11    18    1
    18    12    20   ar
    19    13    14   ar
    20    15    16   ar
    21    17    12   ar
    22    17    19   ar
    23    30    31   ar
    24    32    27   ar
    25    23     1    1
    26    19    10   ar
    27    27    28   ar
    28    21    22    2
    29     1     2   ar
    30     3     4   ar
    31     5     6   ar
    32    10    20   ar
    33    12    13   ar
    34    14    15   ar
    35    16    17   ar
    36    29    30   ar
    37    31    32   ar
    38    23    24    1
