@<TRIPOS>MOLECULE
MolPort-046-958-385 MCULE-1235616481 PubChem-110093605
 33 37 0 0 0
SMALL
GASTEIGER

@<TRIPOS>ATOM
      1 C          12.0223   40.2225    9.4719 C.3     1  UNL1        0.0602
      2 C          11.4868   39.1603    8.5095 C.3     1  UNL1        0.0094
      3 C           9.9895   39.3561    8.2810 C.3     1  UNL1        0.0219
      4 C           9.7251   40.7537    7.7297 C.3     1  UNL1        0.0934
      5 C          11.7380   41.6257    8.9360 C.3     1  UNL1        0.0993
      6 C           9.5263   42.7914    9.2070 C.2     1  UNL1        0.2317
      7 N          10.3179   41.7483    8.6199 N.am    1  UNL1       -0.2788
      8 O          10.0455   43.5901   10.0324 O.2     1  UNL1       -0.2744
      9 C          15.7177   37.8292   11.7190 C.3     1  UNL1        0.0521
     10 C          15.2647   38.8875   10.7797 C.ar    1  UNL1        0.0602
     11 C          16.2031   39.6884   10.1265 C.ar    1  UNL1        0.0294
     12 C          15.7671   40.6838    9.2424 C.ar    1  UNL1        0.0521
     13 C          14.3969   40.8550    9.0318 C.ar    1  UNL1        0.0294
     14 C          13.4852   40.0358    9.7026 C.ar    1  UNL1        0.0611
     15 N          13.9368   39.0751   10.5569 N.ar    1  UNL1       -0.2538
     16 N          16.6852   41.5349    8.5442 N.pl3   1  UNL1       -0.2927
     17 H          17.6440   41.3499    8.6700 H       1  UNL1        0.1541
     18 C          16.3475   42.6278    7.6817 C.ar    1  UNL1        0.1636
     19 C          15.1378   43.8852    6.2722 C.ar    1  UNL1        0.1079
     20 C          16.2753   44.6908    6.3418 C.ar    1  UNL1        0.0588
     21 N          15.1821   42.7456    7.0145 N.ar    1  UNL1       -0.2224
     22 S          17.3601   43.9233    7.3786 S.2     1  UNL1       -0.0508
     23 C           8.0850   42.9596    8.8437 C.3     1  UNL1        0.1305
     24 C           7.2058   42.3835    9.9089 C.ar    1  UNL1        0.0654
     25 C           7.5992   41.6657   11.0269 C.ar    1  UNL1        0.0734
     26 C           5.4821   41.7488   11.0148 C.ar    1  UNL1        0.1471
     27 C           4.9973   42.9905    9.0407 C.ar    1  UNL1        0.0811
     28 C           3.6256   42.8690    9.3038 C.ar    1  UNL1        0.0191
     29 C           3.1986   42.1702   10.4491 C.ar    1  UNL1        0.0046
     30 C           4.1333   41.5962   11.3262 C.ar    1  UNL1        0.0374
     31 C           9.0004   41.3618   11.4262 C.3     1  UNL1        0.0534
     32 N           6.5159   41.2635   11.7342 N.ar    1  UNL1       -0.2311
     33 N           5.8655   42.4212    9.9148 N.ar    1  UNL1       -0.2924
@<TRIPOS>BOND
     1     9    10    1
     2    10    15   ar
     3    11    12   ar
     4    12    16    1
     5    13    14   ar
     6     1    14    1
     7     1     2    1
     8     2     3    1
     9     3     4    1
    10     4     7    1
    11     5     7    1
    12     5     1    1
    13    23     6    1
    14    23    24    1
    15    25    32   ar
    16    26    33   ar
    17    28    29   ar
    18    30    26   ar
    19    31    25    1
    20    18    22   ar
    21    19    21   ar
    22    20    22   ar
    23     7     6   am
    24    33    27   ar
    25    33    24   ar
    26    16    18    1
    27    10    11   ar
    28    12    13   ar
    29    14    15   ar
    30     6     8    2
    31    24    25   ar
    32    26    32   ar
    33    27    28   ar
    34    29    30   ar
    35    18    21   ar
    36    19    20   ar
    37    16    17    1
@<TRIPOS>MOLECULE
MolPort-046-958-385 MCULE-1235616481 PubChem-110093605
 33 37 0 0 0
SMALL
GASTEIGER

@<TRIPOS>ATOM
      1 C          10.1583   40.1509    8.9549 C.3     1  UNL1        0.0602
      2 C           9.5409   39.6180    7.6602 C.3     1  UNL1        0.0094
      3 C           8.0470   39.3629    7.8492 C.3     1  UNL1        0.0219
      4 C           7.3493   40.6494    8.2799 C.3     1  UNL1        0.0934
      5 C           9.4465   41.4268    9.4045 C.3     1  UNL1        0.0993
      6 C           7.2793   41.4293   10.6801 C.2     1  UNL1        0.2317
      7 N           8.0079   41.1859    9.4679 N.am    1  UNL1       -0.2788
      8 O           7.8855   41.8191   11.7142 O.2     1  UNL1       -0.2744
      9 C          14.8116   39.5235   10.5000 C.3     1  UNL1        0.0521
     10 C          13.8579   40.1001    9.5174 C.ar    1  UNL1        0.0602
     11 C          14.3334   40.8607    8.4477 C.ar    1  UNL1        0.0294
     12 C          13.4272   41.4005    7.5259 C.ar    1  UNL1        0.0521
     13 C          12.0609   41.1656    7.6966 C.ar    1  UNL1        0.0294
     14 C          11.6195   40.3999    8.7789 C.ar    1  UNL1        0.0611
     15 N          12.5229   39.8867    9.6605 N.ar    1  UNL1       -0.2538
     16 N          13.8585   42.1886    6.4089 N.pl3   1  UNL1       -0.2927
     17 H          13.3843   42.0475    5.5578 H       1  UNL1        0.1541
     18 C          14.9105   43.1611    6.4070 C.ar    1  UNL1        0.1636
     19 C          16.8359   44.1628    6.9733 C.ar    1  UNL1        0.1079
     20 C          16.4038   45.0768    6.0112 C.ar    1  UNL1        0.0588
     21 N          16.0072   43.1051    7.1889 N.ar    1  UNL1       -0.2224
     22 S          14.9268   44.5146    5.4254 S.2     1  UNL1       -0.0508
     23 C           5.7964   41.2408   10.7367 C.3     1  UNL1        0.1305
     24 C           5.1064   42.2575    9.8822 C.ar    1  UNL1        0.0654
     25 C           3.7522   42.3398    9.6006 C.ar    1  UNL1        0.0734
     26 C           4.7380   43.8779    8.5274 C.ar    1  UNL1        0.1471
     27 C           7.0257   43.5725    9.1163 C.ar    1  UNL1        0.0811
     28 C           7.3783   44.6565    8.3000 C.ar    1  UNL1        0.0191
     29 C           6.3751   45.3481    7.5945 C.ar    1  UNL1        0.0046
     30 C           5.0294   44.9612    7.7021 C.ar    1  UNL1        0.0374
     31 C           2.6881   41.4500   10.1401 C.3     1  UNL1        0.0534
     32 N           3.5095   43.3640    8.7476 N.ar    1  UNL1       -0.2311
     33 N           5.7138   43.2332    9.1916 N.ar    1  UNL1       -0.2924
@<TRIPOS>BOND
     1     9    10    1
     2    10    15   ar
     3    11    12   ar
     4    12    16    1
     5    13    14   ar
     6     1    14    1
     7     1     2    1
     8     2     3    1
     9     3     4    1
    10     4     7    1
    11     5     7    1
    12     5     1    1
    13    23     6    1
    14    23    24    1
    15    25    32   ar
    16    26    33   ar
    17    28    29   ar
    18    30    26   ar
    19    31    25    1
    20    18    22   ar
    21    19    21   ar
    22    20    22   ar
    23     7     6   am
    24    33    27   ar
    25    33    24   ar
    26    16    18    1
    27    10    11   ar
    28    12    13   ar
    29    14    15   ar
    30     6     8    2
    31    24    25   ar
    32    26    32   ar
    33    27    28   ar
    34    29    30   ar
    35    18    21   ar
    36    19    20   ar
    37    16    17    1
@<TRIPOS>MOLECULE
MolPort-046-958-385 MCULE-1235616481 PubChem-110093605
 33 37 0 0 0
SMALL
GASTEIGER

@<TRIPOS>ATOM
      1 C          13.1931   39.8133    9.5500 C.3     1  UNL1        0.0602
      2 C          12.9602   38.3519    9.1606 C.3     1  UNL1        0.0094
      3 C          11.4690   38.0239    9.1937 C.3     1  UNL1        0.0219
      4 C          10.7105   38.9521    8.2502 C.3     1  UNL1        0.0934
      5 C          12.4152   40.7471    8.6228 C.3     1  UNL1        0.0993
      6 C           9.9736   41.2734    8.9155 C.2     1  UNL1        0.2317
      7 N          11.0134   40.3408    8.5860 N.am    1  UNL1       -0.2788
      8 O          10.2669   42.4449    9.2769 O.2     1  UNL1       -0.2744
      9 C          17.8129   38.8498   11.0205 C.3     1  UNL1        0.0521
     10 C          16.8715   39.6807   10.2263 C.ar    1  UNL1        0.0602
     11 C          17.3537   40.7489    9.4678 C.ar    1  UNL1        0.0294
     12 C          16.4590   41.5270    8.7218 C.ar    1  UNL1        0.0521
     13 C          15.0974   41.2169    8.7524 C.ar    1  UNL1        0.0294
     14 C          14.6491   40.1408    9.5229 C.ar    1  UNL1        0.0611
     15 N          15.5413   39.4004   10.2387 N.ar    1  UNL1       -0.2538
     16 N          16.8976   42.6350    7.9250 N.pl3   1  UNL1       -0.2927
     17 H          17.8534   42.8655    7.9748 H       1  UNL1        0.1541
     18 C          16.0844   43.4404    7.0633 C.ar    1  UNL1        0.1636
     19 C          15.4662   45.1877    5.8001 C.ar    1  UNL1        0.1079
     20 C          14.3313   44.3948    5.6239 C.ar    1  UNL1        0.0588
     21 N          16.4329   44.6561    6.5967 N.ar    1  UNL1       -0.2224
     22 S          14.5748   42.9817    6.5096 S.2     1  UNL1       -0.0508
     23 C           8.5327   40.8823    8.8238 C.3     1  UNL1        0.1305
     24 C           7.8024   41.7906    7.8850 C.ar    1  UNL1        0.0654
     25 C           8.1473   42.1053    6.5805 C.ar    1  UNL1        0.0734
     26 C           6.4142   43.2149    7.0844 C.ar    1  UNL1        0.1471
     27 C           5.9863   42.5639    9.3354 C.ar    1  UNL1        0.0811
     28 C           4.8714   43.4134    9.3670 C.ar    1  UNL1        0.0191
     29 C           4.5418   44.1673    8.2244 C.ar    1  UNL1        0.0046
     30 C           5.3190   44.0748    7.0583 C.ar    1  UNL1        0.0374
     31 C           9.3037   41.5557    5.8217 C.3     1  UNL1        0.0534
     32 N           7.2728   43.0025    6.0650 N.ar    1  UNL1       -0.2311
     33 N           6.7087   42.5047    8.1880 N.ar    1  UNL1       -0.2924
@<TRIPOS>BOND
     1     9    10    1
     2    10    15   ar
     3    11    12   ar
     4    12    16    1
     5    13    14   ar
     6     1    14    1
     7     1     2    1
     8     2     3    1
     9     3     4    1
    10     4     7    1
    11     5     7    1
    12     5     1    1
    13    23     6    1
    14    23    24    1
    15    25    32   ar
    16    26    33   ar
    17    28    29   ar
    18    30    26   ar
    19    31    25    1
    20    18    22   ar
    21    19    21   ar
    22    20    22   ar
    23     7     6   am
    24    33    27   ar
    25    33    24   ar
    26    16    18    1
    27    10    11   ar
    28    12    13   ar
    29    14    15   ar
    30     6     8    2
    31    24    25   ar
    32    26    32   ar
    33    27    28   ar
    34    29    30   ar
    35    18    21   ar
    36    19    20   ar
    37    16    17    1
@<TRIPOS>MOLECULE
MolPort-046-958-385 MCULE-1235616481 PubChem-110093605
 33 37 0 0 0
SMALL
GASTEIGER

@<TRIPOS>ATOM
      1 C           9.9852   40.8900    8.4072 C.3     1  UNL1        0.0602
      2 C           9.5543   39.7350    7.5006 C.3     1  UNL1        0.0094
      3 C           8.0925   39.8984    7.0896 C.3     1  UNL1        0.0219
      4 C           7.8978   41.2334    6.3775 C.3     1  UNL1        0.0934
      5 C           9.7689   42.2319    7.7076 C.3     1  UNL1        0.0993
      6 C           7.5466   43.4053    7.6159 C.2     1  UNL1        0.2317
      7 N           8.3932   42.3143    7.2256 N.am    1  UNL1       -0.2788
      8 O           7.9752   44.2845    8.4111 O.2     1  UNL1       -0.2744
      9 C          13.3401   39.4079   11.7210 C.3     1  UNL1        0.0521
     10 C          13.0287   40.0238   10.4053 C.ar    1  UNL1        0.0602
     11 C          14.0647   40.4466    9.5705 C.ar    1  UNL1        0.0294
     12 C          13.7621   41.0261    8.3316 C.ar    1  UNL1        0.0521
     13 C          12.4245   41.1695    7.9554 C.ar    1  UNL1        0.0294
     14 C          11.4125   40.7356    8.8157 C.ar    1  UNL1        0.0611
     15 N          11.7352   40.1751   10.0150 N.ar    1  UNL1       -0.2538
     16 N          14.7845   41.4779    7.4342 N.pl3   1  UNL1       -0.2927
     17 H          14.7573   41.1222    6.5166 H       1  UNL1        0.1541
     18 C          15.8419   42.3952    7.7387 C.ar    1  UNL1        0.1636
     19 C          16.9936   44.3193    7.7901 C.ar    1  UNL1        0.1079
     20 C          17.8821   43.5283    8.5199 C.ar    1  UNL1        0.0588
     21 N          15.8670   43.6887    7.3601 N.ar    1  UNL1       -0.2224
     22 S          17.2063   41.9872    8.6149 S.2     1  UNL1       -0.0508
     23 C           6.1553   43.5284    7.0804 C.3     1  UNL1        0.1305
     24 C           5.1563   43.4261    8.1901 C.ar    1  UNL1        0.0654
     25 C           4.0153   44.1918    8.3677 C.ar    1  UNL1        0.0734
     26 C           4.1765   42.8672   10.0134 C.ar    1  UNL1        0.1471
     27 C           6.1766   41.6605    9.5470 C.ar    1  UNL1        0.0811
     28 C           6.0114   40.9322   10.7336 C.ar    1  UNL1        0.0191
     29 C           4.9009   41.1940   11.5587 C.ar    1  UNL1        0.0046
     30 C           3.9616   42.1756   11.2030 C.ar    1  UNL1        0.0374
     31 C           3.5189   45.2528    7.4496 C.3     1  UNL1        0.0534
     32 N           3.3873   43.8427    9.5163 N.ar    1  UNL1       -0.2311
     33 N           5.2449   42.5989    9.2416 N.ar    1  UNL1       -0.2924
@<TRIPOS>BOND
     1     9    10    1
     2    10    15   ar
     3    11    12   ar
     4    12    16    1
     5    13    14   ar
     6     1    14    1
     7     1     2    1
     8     2     3    1
     9     3     4    1
    10     4     7    1
    11     5     7    1
    12     5     1    1
    13    23     6    1
    14    23    24    1
    15    25    32   ar
    16    26    33   ar
    17    28    29   ar
    18    30    26   ar
    19    31    25    1
    20    18    22   ar
    21    19    21   ar
    22    20    22   ar
    23     7     6   am
    24    33    27   ar
    25    33    24   ar
    26    16    18    1
    27    10    11   ar
    28    12    13   ar
    29    14    15   ar
    30     6     8    2
    31    24    25   ar
    32    26    32   ar
    33    27    28   ar
    34    29    30   ar
    35    18    21   ar
    36    19    20   ar
    37    16    17    1
@<TRIPOS>MOLECULE
MolPort-046-958-385 MCULE-1235616481 PubChem-110093605
 33 37 0 0 0
SMALL
GASTEIGER

@<TRIPOS>ATOM
      1 C          13.2544   39.4108    9.6432 C.3     1  UNL1        0.0602
      2 C          12.7926   37.9519    9.6477 C.3     1  UNL1        0.0094
      3 C          11.2766   37.8735    9.4802 C.3     1  UNL1        0.0219
      4 C          10.8600   38.5582    8.1822 C.3     1  UNL1        0.0934
      5 C          12.8178   40.1088    8.3552 C.3     1  UNL1        0.0993
      6 C          10.5138   41.0526    8.0022 C.2     1  UNL1        0.2317
      7 N          11.3828   39.9218    8.1617 N.am    1  UNL1       -0.2788
      8 O          10.9803   42.2219    8.0656 O.2     1  UNL1       -0.2744
      9 C          17.4792   37.4702   11.3221 C.3     1  UNL1        0.0521
     10 C          16.7686   38.5662   10.6141 C.ar    1  UNL1        0.0602
     11 C          17.4866   39.6541   10.1142 C.ar    1  UNL1        0.0294
     12 C          16.8086   40.6830    9.4478 C.ar    1  UNL1        0.0521
     13 C          15.4225   40.5989    9.2965 C.ar    1  UNL1        0.0294
     14 C          14.7353   39.4958    9.8096 C.ar    1  UNL1        0.0611
     15 N          15.4199   38.5090   10.4534 N.ar    1  UNL1       -0.2538
     16 N          17.4940   41.8232    8.9139 N.pl3   1  UNL1       -0.2927
     17 H          18.4082   41.9841    9.2419 H       1  UNL1        0.1541
     18 C          16.9820   42.7521    7.9509 C.ar    1  UNL1        0.1636
     19 C          15.5300   43.7157    6.5387 C.ar    1  UNL1        0.1079
     20 C          16.6097   44.5781    6.3436 C.ar    1  UNL1        0.0588
     21 N          15.7402   42.7075    7.4282 N.ar    1  UNL1       -0.2224
     22 S          17.8602   44.0344    7.3343 S.2     1  UNL1       -0.0508
     23 C           9.0517   40.8684    7.7453 C.3     1  UNL1        0.1305
     24 C           8.2555   41.2515    8.9532 C.ar    1  UNL1        0.0654
     25 C           6.9450   41.7000    8.9891 C.ar    1  UNL1        0.0734
     26 C           7.6990   41.7245   10.9690 C.ar    1  UNL1        0.1471
     27 C           9.9357   40.9476   10.7093 C.ar    1  UNL1        0.0811
     28 C          10.1391   41.0783   12.0904 C.ar    1  UNL1        0.0191
     29 C           9.0886   41.5424   12.9049 C.ar    1  UNL1        0.0046
     30 C           7.8437   41.8743   12.3460 C.ar    1  UNL1        0.0374
     31 C           6.0349   41.8451    7.8204 C.3     1  UNL1        0.0534
     32 N           6.5833   41.9979   10.2603 N.ar    1  UNL1       -0.2311
     33 N           8.7173   41.2788   10.2117 N.ar    1  UNL1       -0.2924
@<TRIPOS>BOND
     1     9    10    1
     2    10    15   ar
     3    11    12   ar
     4    12    16    1
     5    13    14   ar
     6     1    14    1
     7     1     2    1
     8     2     3    1
     9     3     4    1
    10     4     7    1
    11     5     7    1
    12     5     1    1
    13    23     6    1
    14    23    24    1
    15    25    32   ar
    16    26    33   ar
    17    28    29   ar
    18    30    26   ar
    19    31    25    1
    20    18    22   ar
    21    19    21   ar
    22    20    22   ar
    23     7     6   am
    24    33    27   ar
    25    33    24   ar
    26    16    18    1
    27    10    11   ar
    28    12    13   ar
    29    14    15   ar
    30     6     8    2
    31    24    25   ar
    32    26    32   ar
    33    27    28   ar
    34    29    30   ar
    35    18    21   ar
    36    19    20   ar
    37    16    17    1
@<TRIPOS>MOLECULE
MolPort-046-958-385 MCULE-1235616481 PubChem-110093605
 33 37 0 0 0
SMALL
GASTEIGER

@<TRIPOS>ATOM
      1 C          10.8933   42.0479    9.1943 C.3     1  UNL1        0.0602
      2 C          11.1569   42.9742   10.3834 C.3     1  UNL1        0.0094
      3 C          10.1830   44.1505   10.3671 C.3     1  UNL1        0.0219
      4 C           8.7466   43.6381   10.4016 C.3     1  UNL1        0.0934
      5 C           9.4477   41.5509    9.2102 C.3     1  UNL1        0.0993
      6 C           7.5109   42.8920    8.3302 C.2     1  UNL1        0.2317
      7 N           8.5413   42.6912    9.3087 N.am    1  UNL1       -0.2788
      8 O           7.4045   42.1022    7.3536 O.2     1  UNL1       -0.2744
      9 C          11.6983   37.1794    9.4840 C.3     1  UNL1        0.0521
     10 C          12.2351   38.5573    9.3395 C.ar    1  UNL1        0.0602
     11 C          13.6104   38.7601    9.2112 C.ar    1  UNL1        0.0294
     12 C          14.1078   40.0625    9.0752 C.ar    1  UNL1        0.0521
     13 C          13.2140   41.1359    9.0707 C.ar    1  UNL1        0.0294
     14 C          11.8436   40.8968    9.2016 C.ar    1  UNL1        0.0611
     15 N          11.3868   39.6197    9.3321 N.ar    1  UNL1       -0.2538
     16 N          15.5096   40.3301    8.9397 N.pl3   1  UNL1       -0.2927
     17 H          16.1239   39.5885    9.1447 H       1  UNL1        0.1541
     18 C          16.1062   41.5683    8.5358 C.ar    1  UNL1        0.1636
     19 C          17.5804   43.2575    8.4682 C.ar    1  UNL1        0.1079
     20 C          16.6899   43.7229    7.4997 C.ar    1  UNL1        0.0588
     21 N          17.2538   42.0659    9.0385 N.ar    1  UNL1       -0.2224
     22 S          15.4575   42.5800    7.3733 S.2     1  UNL1       -0.0508
     23 C           6.5415   44.0243    8.4558 C.3     1  UNL1        0.1305
     24 C           5.1927   43.5165    8.8588 C.ar    1  UNL1        0.0654
     25 C           3.9578   43.9946    8.4511 C.ar    1  UNL1        0.0734
     26 C           3.6269   42.4362    9.8479 C.ar    1  UNL1        0.1471
     27 C           5.8324   41.7582   10.4396 C.ar    1  UNL1        0.0811
     28 C           5.3008   40.7974   11.3114 C.ar    1  UNL1        0.0191
     29 C           3.9040   40.6725   11.4368 C.ar    1  UNL1        0.0046
     30 C           3.0430   41.5003   10.6980 C.ar    1  UNL1        0.0374
     31 C           3.7207   45.0939    7.4762 C.3     1  UNL1        0.0534
     32 N           2.9617   43.3149    9.0686 N.ar    1  UNL1       -0.2311
     33 N           4.9643   42.5364    9.7448 N.ar    1  UNL1       -0.2924
@<TRIPOS>BOND
     1     9    10    1
     2    10    15   ar
     3    11    12   ar
     4    12    16    1
     5    13    14   ar
     6     1    14    1
     7     1     2    1
     8     2     3    1
     9     3     4    1
    10     4     7    1
    11     5     7    1
    12     5     1    1
    13    23     6    1
    14    23    24    1
    15    25    32   ar
    16    26    33   ar
    17    28    29   ar
    18    30    26   ar
    19    31    25    1
    20    18    22   ar
    21    19    21   ar
    22    20    22   ar
    23     7     6   am
    24    33    27   ar
    25    33    24   ar
    26    16    18    1
    27    10    11   ar
    28    12    13   ar
    29    14    15   ar
    30     6     8    2
    31    24    25   ar
    32    26    32   ar
    33    27    28   ar
    34    29    30   ar
    35    18    21   ar
    36    19    20   ar
    37    16    17    1
@<TRIPOS>MOLECULE
MolPort-046-958-385 MCULE-1235616481 PubChem-110093605
 33 37 0 0 0
SMALL
GASTEIGER

@<TRIPOS>ATOM
      1 C          13.3458   40.2989    9.8579 C.3     1  UNL1        0.0602
      2 C          12.6114   39.1142   10.4894 C.3     1  UNL1        0.0094
      3 C          11.1021   39.3460   10.4573 C.3     1  UNL1        0.0219
      4 C          10.6375   39.5532    9.0192 C.3     1  UNL1        0.0934
      5 C          12.8660   40.5265    8.4244 C.3     1  UNL1        0.0993
      6 C          10.7672   41.7864    7.8486 C.2     1  UNL1        0.2317
      7 N          11.4099   40.6320    8.4087 N.am    1  UNL1       -0.2788
      8 O          11.4594   42.7385    7.3978 O.2     1  UNL1       -0.2744
      9 C          17.2350   37.6124   11.3040 C.3     1  UNL1        0.0521
     10 C          16.6945   38.7921   10.5803 C.ar    1  UNL1        0.0602
     11 C          17.5646   39.6763    9.9400 C.ar    1  UNL1        0.0294
     12 C          17.0464   40.7859    9.2599 C.ar    1  UNL1        0.0521
     13 C          15.6641   40.9857    9.2363 C.ar    1  UNL1        0.0294
     14 C          14.8222   40.0810    9.8882 C.ar    1  UNL1        0.0611
     15 N          15.3531   39.0098   10.5421 N.ar    1  UNL1       -0.2538
     16 N          17.8921   41.7261    8.5848 N.pl3   1  UNL1       -0.2927
     17 H          18.8348   41.7560    8.8668 H       1  UNL1        0.1541
     18 C          17.5028   42.6266    7.5408 C.ar    1  UNL1        0.1636
     19 C          17.6888   43.9390    5.7313 C.ar    1  UNL1        0.1079
     20 C          16.3313   44.1353    5.9890 C.ar    1  UNL1        0.0588
     21 N          18.3326   43.1041    6.5918 N.ar    1  UNL1       -0.2224
     22 S          15.9502   43.2174    7.3502 S.2     1  UNL1       -0.0508
     23 C           9.2758   41.8764    7.7757 C.3     1  UNL1        0.1305
     24 C           8.7396   40.8906    6.7856 C.ar    1  UNL1        0.0654
     25 C           7.4966   40.2785    6.7970 C.ar    1  UNL1        0.0734
     26 C           8.5888   39.5101    5.1520 C.ar    1  UNL1        0.1471
     27 C          10.6742   40.6512    5.3025 C.ar    1  UNL1        0.0811
     28 C          11.1288   39.9656    4.1671 C.ar    1  UNL1        0.0191
     29 C          10.2800   39.0404    3.5299 C.ar    1  UNL1        0.0046
     30 C           8.9866   38.8004    4.0217 C.ar    1  UNL1        0.0374
     31 C           6.4086   40.5200    7.7834 C.3     1  UNL1        0.0534
     32 N           7.3909   39.4066    5.7654 N.ar    1  UNL1       -0.2311
     33 N           9.4176   40.3891    5.7431 N.ar    1  UNL1       -0.2924
@<TRIPOS>BOND
     1     9    10    1
     2    10    15   ar
     3    11    12   ar
     4    12    16    1
     5    13    14   ar
     6     1    14    1
     7     1     2    1
     8     2     3    1
     9     3     4    1
    10     4     7    1
    11     5     7    1
    12     5     1    1
    13    23     6    1
    14    23    24    1
    15    25    32   ar
    16    26    33   ar
    17    28    29   ar
    18    30    26   ar
    19    31    25    1
    20    18    22   ar
    21    19    21   ar
    22    20    22   ar
    23     7     6   am
    24    33    27   ar
    25    33    24   ar
    26    16    18    1
    27    10    11   ar
    28    12    13   ar
    29    14    15   ar
    30     6     8    2
    31    24    25   ar
    32    26    32   ar
    33    27    28   ar
    34    29    30   ar
    35    18    21   ar
    36    19    20   ar
    37    16    17    1
@<TRIPOS>MOLECULE
MolPort-046-958-385 MCULE-1235616481 PubChem-110093605
 33 37 0 0 0
SMALL
GASTEIGER

@<TRIPOS>ATOM
      1 C          12.6416   39.5329    9.8477 C.3     1  UNL1        0.0602
      2 C          12.1676   38.8858    8.5446 C.3     1  UNL1        0.0094
      3 C          10.6416   38.8534    8.4914 C.3     1  UNL1        0.0219
      4 C          10.0860   40.2688    8.6140 C.3     1  UNL1        0.0934
      5 C          12.0676   40.9428    9.9875 C.3     1  UNL1        0.0993
      6 C           9.7486   41.4175   10.8368 C.2     1  UNL1        0.2317
      7 N          10.6179   40.8977    9.8201 N.am    1  UNL1       -0.2788
      8 O          10.2321   41.8851   11.9029 O.2     1  UNL1       -0.2744
      9 C          16.8913   37.5892   11.4588 C.3     1  UNL1        0.0521
     10 C          16.1779   38.6341   10.6798 C.ar    1  UNL1        0.0602
     11 C          16.9025   39.6260   10.0166 C.ar    1  UNL1        0.0294
     12 C          16.2218   40.6072    9.2843 C.ar    1  UNL1        0.0521
     13 C          14.8264   40.5727    9.2324 C.ar    1  UNL1        0.0294
     14 C          14.1327   39.5655    9.9084 C.ar    1  UNL1        0.0611
     15 N          14.8201   38.6234   10.6131 N.ar    1  UNL1       -0.2538
     16 N          16.9137   41.6490    8.5837 N.pl3   1  UNL1       -0.2927
     17 H          17.8902   41.6897    8.7024 H       1  UNL1        0.1541
     18 C          16.3267   42.6368    7.7281 C.ar    1  UNL1        0.1636
     19 C          14.8349   43.5969    6.3556 C.ar    1  UNL1        0.1079
     20 C          15.7807   44.6228    6.3813 C.ar    1  UNL1        0.0588
     21 N          15.1408   42.5007    7.1017 N.ar    1  UNL1       -0.2224
     22 S          17.0358   44.1112    7.3832 S.2     1  UNL1       -0.0508
     23 C           8.2648   41.4283   10.6477 C.3     1  UNL1        0.1305
     24 C           7.8407   42.6553    9.9032 C.ar    1  UNL1        0.0654
     25 C           8.6031   43.7801    9.6322 C.ar    1  UNL1        0.0734
     26 C           6.6518   44.1155    8.8780 C.ar    1  UNL1        0.1471
     27 C           5.4978   42.1097    9.4425 C.ar    1  UNL1        0.0811
     28 C           4.3302   42.6191    8.8568 C.ar    1  UNL1        0.0191
     29 C           4.3482   43.9024    8.2777 C.ar    1  UNL1        0.0046
     30 C           5.5226   44.6725    8.2827 C.ar    1  UNL1        0.0374
     31 C          10.0347   43.9766    9.9886 C.3     1  UNL1        0.0534
     32 N           7.8605   44.7073    8.9808 N.ar    1  UNL1       -0.2311
     33 N           6.6099   42.8872    9.4245 N.ar    1  UNL1       -0.2924
@<TRIPOS>BOND
     1     9    10    1
     2    10    15   ar
     3    11    12   ar
     4    12    16    1
     5    13    14   ar
     6     1    14    1
     7     1     2    1
     8     2     3    1
     9     3     4    1
    10     4     7    1
    11     5     7    1
    12     5     1    1
    13    23     6    1
    14    23    24    1
    15    25    32   ar
    16    26    33   ar
    17    28    29   ar
    18    30    26   ar
    19    31    25    1
    20    18    22   ar
    21    19    21   ar
    22    20    22   ar
    23     7     6   am
    24    33    27   ar
    25    33    24   ar
    26    16    18    1
    27    10    11   ar
    28    12    13   ar
    29    14    15   ar
    30     6     8    2
    31    24    25   ar
    32    26    32   ar
    33    27    28   ar
    34    29    30   ar
    35    18    21   ar
    36    19    20   ar
    37    16    17    1
@<TRIPOS>MOLECULE
MolPort-046-958-385 MCULE-1235616481 PubChem-110093605
 33 37 0 0 0
SMALL
GASTEIGER

@<TRIPOS>ATOM
      1 C          11.1622   39.8523    8.3196 C.3     1  UNL1        0.0602
      2 C          11.2072   39.4415    6.8462 C.3     1  UNL1        0.0094
      3 C           9.7917   39.2899    6.2931 C.3     1  UNL1        0.0219
      4 C           9.0258   40.5991    6.4561 C.3     1  UNL1        0.0934
      5 C          10.3745   41.1510    8.4917 C.3     1  UNL1        0.0993
      6 C           7.8640   41.2454    8.6024 C.2     1  UNL1        0.2317
      7 N           9.0675   41.0164    7.8551 N.am    1  UNL1       -0.2788
      8 O           7.9262   41.5293    9.8290 O.2     1  UNL1       -0.2744
      9 C          14.5276   38.7371   11.7641 C.3     1  UNL1        0.0521
     10 C          14.1637   39.4656   10.5213 C.ar    1  UNL1        0.0602
     11 C          15.1081   40.2719    9.8837 C.ar    1  UNL1        0.0294
     12 C          14.7565   40.9550    8.7123 C.ar    1  UNL1        0.0521
     13 C          13.4629   40.8147    8.2043 C.ar    1  UNL1        0.0294
     14 C          12.5425   39.9996    8.8684 C.ar    1  UNL1        0.0611
     15 N          12.9113   39.3464   10.0059 N.ar    1  UNL1       -0.2538
     16 N          15.6850   41.7961    8.0156 N.pl3   1  UNL1       -0.2927
     17 H          16.6412   41.5953    8.1362 H       1  UNL1        0.1541
     18 C          15.3608   42.8995    7.1612 C.ar    1  UNL1        0.1636
     19 C          14.1827   44.1638    5.7314 C.ar    1  UNL1        0.1079
     20 C          15.3034   44.9857    5.8572 C.ar    1  UNL1        0.0588
     21 N          14.2186   43.0113    6.4541 N.ar    1  UNL1       -0.2224
     22 S          16.3624   44.2162    6.9188 S.2     1  UNL1       -0.0508
     23 C           6.5233   41.1668    7.9436 C.3     1  UNL1        0.1305
     24 C           5.5370   42.0365    8.6581 C.ar    1  UNL1        0.0654
     25 C           5.2506   43.3680    8.4035 C.ar    1  UNL1        0.0734
     26 C           4.0983   42.7591   10.0740 C.ar    1  UNL1        0.1471
     27 C           4.7267   40.4804   10.3673 C.ar    1  UNL1        0.0811
     28 C           3.8607   40.3852   11.4658 C.ar    1  UNL1        0.0191
     29 C           3.1104   41.5107   11.8566 C.ar    1  UNL1        0.0046
     30 C           3.2231   42.7231   11.1567 C.ar    1  UNL1        0.0374
     31 C           5.8389   44.2003    7.3188 C.3     1  UNL1        0.0534
     32 N           4.3390   43.8324    9.2917 N.ar    1  UNL1       -0.2311
     33 N           4.8042   41.6705    9.7196 N.ar    1  UNL1       -0.2924
@<TRIPOS>BOND
     1     9    10    1
     2    10    15   ar
     3    11    12   ar
     4    12    16    1
     5    13    14   ar
     6     1    14    1
     7     1     2    1
     8     2     3    1
     9     3     4    1
    10     4     7    1
    11     5     7    1
    12     5     1    1
    13    23     6    1
    14    23    24    1
    15    25    32   ar
    16    26    33   ar
    17    28    29   ar
    18    30    26   ar
    19    31    25    1
    20    18    22   ar
    21    19    21   ar
    22    20    22   ar
    23     7     6   am
    24    33    27   ar
    25    33    24   ar
    26    16    18    1
    27    10    11   ar
    28    12    13   ar
    29    14    15   ar
    30     6     8    2
    31    24    25   ar
    32    26    32   ar
    33    27    28   ar
    34    29    30   ar
    35    18    21   ar
    36    19    20   ar
    37    16    17    1
@<TRIPOS>MOLECULE
MolPort-046-958-385 MCULE-1235616481 PubChem-110093605
 33 37 0 0 0
SMALL
GASTEIGER

@<TRIPOS>ATOM
      1 C          11.9955   41.0236    8.1735 C.3     1  UNL1        0.0602
      2 C          12.0611   39.4990    8.0595 C.3     1  UNL1        0.0094
      3 C          10.7063   38.8816    8.3997 C.3     1  UNL1        0.0219
      4 C           9.6323   39.4377    7.4700 C.3     1  UNL1        0.0934
      5 C          10.9037   41.5842    7.2621 C.3     1  UNL1        0.0993
      6 C           8.4686   41.6390    7.8875 C.2     1  UNL1        0.2317
      7 N           9.6439   40.8969    7.5307 N.am    1  UNL1       -0.2788
      8 O           8.5252   42.8925    8.0083 O.2     1  UNL1       -0.2744
      9 C          14.6736   44.2558    5.5631 C.3     1  UNL1        0.0521
     10 C          14.6084   43.1873    6.5934 C.ar    1  UNL1        0.0602
     11 C          15.7732   42.7700    7.2400 C.ar    1  UNL1        0.0294
     12 C          15.7025   41.7621    8.2103 C.ar    1  UNL1        0.0521
     13 C          14.4631   41.1930    8.5121 C.ar    1  UNL1        0.0294
     14 C          13.3173   41.6344    7.8452 C.ar    1  UNL1        0.0611
     15 N          13.4147   42.6167    6.9059 N.ar    1  UNL1       -0.2538
     16 N          16.8654   41.2946    8.9061 N.pl3   1  UNL1       -0.2927
     17 H          17.6725   41.8550    8.8463 H       1  UNL1        0.1541
     18 C          16.9706   40.0934    9.6797 C.ar    1  UNL1        0.1636
     19 C          17.9193   38.3211   10.6747 C.ar    1  UNL1        0.1079
     20 C          16.5994   38.0958   11.0683 C.ar    1  UNL1        0.0588
     21 N          18.1199   39.4266    9.9070 N.ar    1  UNL1       -0.2224
     22 S          15.6711   39.3426   10.4169 S.2     1  UNL1       -0.0508
     23 C           7.1603   40.9479    8.1072 C.3     1  UNL1        0.1305
     24 C           6.6012   41.3001    9.4500 C.ar    1  UNL1        0.0654
     25 C           7.2968   41.4413   10.6399 C.ar    1  UNL1        0.0734
     26 C           5.2375   41.7264   11.0486 C.ar    1  UNL1        0.1471
     27 C           4.2141   41.4347    8.9175 C.ar    1  UNL1        0.0811
     28 C           2.9561   41.6629    9.4928 C.ar    1  UNL1        0.0191
     29 C           2.8623   41.9255   10.8729 C.ar    1  UNL1        0.0046
     30 C           4.0153   41.9600   11.6740 C.ar    1  UNL1        0.0374
     31 C           8.7697   41.3189   10.8152 C.3     1  UNL1        0.0534
     32 N           6.4430   41.7147   11.6557 N.ar    1  UNL1       -0.2311
     33 N           5.3016   41.4781    9.7283 N.ar    1  UNL1       -0.2924
@<TRIPOS>BOND
     1     9    10    1
     2    10    15   ar
     3    11    12   ar
     4    12    16    1
     5    13    14   ar
     6     1    14    1
     7     1     2    1
     8     2     3    1
     9     3     4    1
    10     4     7    1
    11     5     7    1
    12     5     1    1
    13    23     6    1
    14    23    24    1
    15    25    32   ar
    16    26    33   ar
    17    28    29   ar
    18    30    26   ar
    19    31    25    1
    20    18    22   ar
    21    19    21   ar
    22    20    22   ar
    23     7     6   am
    24    33    27   ar
    25    33    24   ar
    26    16    18    1
    27    10    11   ar
    28    12    13   ar
    29    14    15   ar
    30     6     8    2
    31    24    25   ar
    32    26    32   ar
    33    27    28   ar
    34    29    30   ar
    35    18    21   ar
    36    19    20   ar
    37    16    17    1
