@<TRIPOS>MOLECULE
MolPort-020-295-333 MCULE-5513549119 PubChem-110267415
 34 37 0 0 0
SMALL
GASTEIGER

@<TRIPOS>ATOM
      1 C           9.8102   41.6063   10.6655 C.3     1  UNL1        0.0603
      2 C           9.8358   41.3314   12.1715 C.3     1  UNL1        0.0094
      3 C           8.4408   41.5032   12.7682 C.3     1  UNL1        0.0220
      4 C           7.4607   40.5676   12.0684 C.3     1  UNL1        0.0937
      5 C           8.7952   40.7025    9.9627 C.3     1  UNL1        0.0996
      6 C           6.3041   40.9979    9.8500 C.2     1  UNL1        0.2490
      7 N           7.5003   40.8124   10.6286 N.am    1  UNL1       -0.2757
      8 O           6.3218   40.7065    8.6223 O.2     1  UNL1       -0.2699
      9 C          12.7425   42.1142    8.4204 C.ar    1  UNL1        0.2214
     10 C          13.3426   40.4369    9.9796 C.ar    1  UNL1        0.1031
     11 C          12.0910   40.5340   10.5830 C.ar    1  UNL1        0.0356
     12 C          11.1714   41.4529   10.0656 C.ar    1  UNL1        0.0647
     13 N          13.6454   41.2238    8.9150 N.ar    1  UNL1       -0.2120
     14 N          11.5169   42.2203    8.9985 N.ar    1  UNL1       -0.2179
     15 N          13.0592   42.9453    7.2971 N.pl3   1  UNL1       -0.2680
     16 H          12.3007   43.3269    6.7988 H       1  UNL1        0.1565
     17 C          18.2879   44.2483    5.4530 C.3     1  UNL1        0.0327
     18 C          16.9276   43.9050    5.9424 C.ar    1  UNL1       -0.0026
     19 C          15.8068   44.1698    5.1538 C.ar    1  UNL1        0.0960
     20 C          14.3722   43.2752    6.8286 C.ar    1  UNL1        0.1343
     21 C          15.4735   42.9966    7.6430 C.ar    1  UNL1        0.0342
     22 C          16.7570   43.3144    7.1950 C.ar    1  UNL1        0.0001
     23 N          14.5647   43.8525    5.6088 N.ar    1  UNL1       -0.2293
     24 C           5.0522   41.5329   10.4359 C.ar    1  UNL1        0.0537
     25 C           4.4389   40.8584   11.5019 C.ar    1  UNL1        0.0058
     26 C           3.2437   41.3325   12.0497 C.ar    1  UNL1        0.0148
     27 C           2.6380   42.4834   11.5373 C.ar    1  UNL1        0.0503
     28 C           3.2406   43.1538   10.4634 C.ar    1  UNL1        0.0148
     29 C           4.4354   42.6796    9.9159 C.ar    1  UNL1        0.0058
     30 C           0.8523   42.5157   13.3758 C.2     1  UNL1        0.2266
     31 C          -0.4350   43.1015   13.8310 C.3     1  UNL1        0.0949
     32 N           1.4125   42.9394   12.1265 N.am    1  UNL1       -0.2839
     33 O           1.4282   41.6572   14.0947 O.2     1  UNL1       -0.2748
     34 H           0.9034   43.6132   11.6205 H       1  UNL1        0.1549
@<TRIPOS>BOND
     1    17    18    1
     2    19    23   ar
     3    20    21   ar
     4    20    15    1
     5    22    18   ar
     6     9    14   ar
     7    10    13   ar
     8    11    12   ar
     9     1    12    1
    10     1     2    1
    11     2     3    1
    12     3     4    1
    13     4     7    1
    14     5     7    1
    15     5     1    1
    16     6    24    1
    17    25    26   ar
    18    27    28   ar
    19    27    32    1
    20    29    24   ar
    21    31    30    1
    22    15     9    1
    23     7     6   am
    24    32    30   am
    25    18    19   ar
    26    20    23   ar
    27    21    22   ar
    28     9    13   ar
    29    10    11   ar
    30    12    14   ar
    31     6     8    2
    32    24    25   ar
    33    26    27   ar
    34    28    29   ar
    35    30    33    2
    36    15    16    1
    37    32    34    1
@<TRIPOS>MOLECULE
MolPort-020-295-333 MCULE-5513549119 PubChem-110267415
 34 37 0 0 0
SMALL
GASTEIGER

@<TRIPOS>ATOM
      1 C          16.0245   35.1738    8.3047 C.3     1  UNL1        0.0603
      2 C          15.2125   34.1528    9.1062 C.3     1  UNL1        0.0094
      3 C          14.5496   33.1456    8.1694 C.3     1  UNL1        0.0220
      4 C          15.6117   32.4456    7.3282 C.3     1  UNL1        0.0937
      5 C          17.0620   34.4754    7.4233 C.3     1  UNL1        0.0996
      6 C          16.6811   33.3500    5.2111 C.2     1  UNL1        0.2490
      7 N          16.4074   33.4460    6.6208 N.am    1  UNL1       -0.2757
      8 O          17.7242   33.8921    4.7520 O.2     1  UNL1       -0.2699
      9 C          18.3568   36.6730   10.7967 C.ar    1  UNL1        0.2214
     10 C          16.8474   38.3761   10.1443 C.ar    1  UNL1        0.1031
     11 C          16.2018   37.4904    9.2847 C.ar    1  UNL1        0.0356
     12 C          16.6729   36.1753    9.2063 C.ar    1  UNL1        0.0647
     13 N          17.9075   37.9550   10.8813 N.ar    1  UNL1       -0.2120
     14 N          17.7369   35.7970    9.9623 N.ar    1  UNL1       -0.2179
     15 N          19.4748   36.2260   11.5733 N.pl3   1  UNL1       -0.2680
     16 H          20.3023   36.7551   11.5063 H       1  UNL1        0.1565
     17 C          19.5989   31.6730   14.9927 C.3     1  UNL1        0.0327
     18 C          19.5668   32.8550   14.0928 C.ar    1  UNL1       -0.0026
     19 C          19.4973   34.1439   14.6240 C.ar    1  UNL1        0.0960
     20 C          19.5056   35.0841   12.4379 C.ar    1  UNL1        0.1343
     21 C          19.5756   33.8072   11.8737 C.ar    1  UNL1        0.0342
     22 C          19.6061   32.6884   12.7081 C.ar    1  UNL1        0.0001
     23 N          19.4684   35.2211   13.7936 N.ar    1  UNL1       -0.2293
     24 C          15.7734   32.6472    4.2736 C.ar    1  UNL1        0.0537
     25 C          14.6461   31.9752    4.7687 C.ar    1  UNL1        0.0058
     26 C          13.7934   31.2841    3.9033 C.ar    1  UNL1        0.0148
     27 C          14.0565   31.2470    2.5310 C.ar    1  UNL1        0.0503
     28 C          15.1892   31.9065    2.0330 C.ar    1  UNL1        0.0148
     29 C          16.0415   32.5972    2.8983 C.ar    1  UNL1        0.0058
     30 C          12.9881   30.7115    0.2636 C.2     1  UNL1        0.2266
     31 C          12.0041   29.8700   -0.4653 C.3     1  UNL1        0.0949
     32 N          13.1579   30.5283    1.6748 N.am    1  UNL1       -0.2839
     33 O          13.6549   31.5709   -0.3707 O.2     1  UNL1       -0.2748
     34 H          12.6001   29.8378    2.1005 H       1  UNL1        0.1549
@<TRIPOS>BOND
     1    17    18    1
     2    19    23   ar
     3    20    21   ar
     4    20    15    1
     5    22    18   ar
     6     9    14   ar
     7    10    13   ar
     8    11    12   ar
     9     1    12    1
    10     1     2    1
    11     2     3    1
    12     3     4    1
    13     4     7    1
    14     5     7    1
    15     5     1    1
    16     6    24    1
    17    25    26   ar
    18    27    28   ar
    19    27    32    1
    20    29    24   ar
    21    31    30    1
    22    15     9    1
    23     7     6   am
    24    32    30   am
    25    18    19   ar
    26    20    23   ar
    27    21    22   ar
    28     9    13   ar
    29    10    11   ar
    30    12    14   ar
    31     6     8    2
    32    24    25   ar
    33    26    27   ar
    34    28    29   ar
    35    30    33    2
    36    15    16    1
    37    32    34    1
@<TRIPOS>MOLECULE
MolPort-020-295-333 MCULE-5513549119 PubChem-110267415
 34 37 0 0 0
SMALL
GASTEIGER

@<TRIPOS>ATOM
      1 C          12.5133   38.2118    9.2605 C.3     1  UNL1        0.0603
      2 C          11.7222   37.2683   10.1706 C.3     1  UNL1        0.0094
      3 C          12.3671   35.8845   10.1930 C.3     1  UNL1        0.0220
      4 C          13.8136   35.9961   10.6630 C.3     1  UNL1        0.0937
      5 C          13.9770   38.2931    9.6987 C.3     1  UNL1        0.0996
      6 C          15.8080   36.6397    9.2306 C.2     1  UNL1        0.2490
      7 N          14.5280   36.9457    9.8130 N.am    1  UNL1       -0.2757
      8 O          16.5958   37.5858    8.9529 O.2     1  UNL1       -0.2699
      9 C          11.7002   41.6764    8.1502 C.ar    1  UNL1        0.2214
     10 C          10.4092   41.2458   10.0873 C.ar    1  UNL1        0.1031
     11 C          10.9539   39.9672   10.1800 C.ar    1  UNL1        0.0356
     12 C          11.8893   39.5702    9.2182 C.ar    1  UNL1        0.0647
     13 N          10.7892   42.0738    9.0802 N.ar    1  UNL1       -0.2120
     14 N          12.2407   40.4315    8.2275 N.ar    1  UNL1       -0.2179
     15 N          12.1032   42.5480    7.0868 N.pl3   1  UNL1       -0.2680
     16 H          11.3919   42.8876    6.4970 H       1  UNL1        0.1565
     17 C          17.4275   44.2222    5.9526 C.3     1  UNL1        0.0327
     18 C          16.0418   43.7784    6.2543 C.ar    1  UNL1       -0.0026
     19 C          14.9505   44.4421    5.6914 C.ar    1  UNL1        0.0960
     20 C          13.4404   42.9733    6.7983 C.ar    1  UNL1        0.1343
     21 C          14.5111   42.2868    7.3782 C.ar    1  UNL1        0.0342
     22 C          15.8178   42.6939    7.1031 C.ar    1  UNL1        0.0001
     23 N          13.6850   44.0297    5.9724 N.ar    1  UNL1       -0.2293
     24 C          16.2312   35.2511    8.9315 C.ar    1  UNL1        0.0537
     25 C          15.2642   34.2734    8.6545 C.ar    1  UNL1        0.0058
     26 C          15.6422   32.9527    8.3969 C.ar    1  UNL1        0.0148
     27 C          16.9908   32.5856    8.4188 C.ar    1  UNL1        0.0503
     28 C          17.9600   33.5567    8.7078 C.ar    1  UNL1        0.0148
     29 C          17.5819   34.8768    8.9654 C.ar    1  UNL1        0.0058
     30 C          17.5452   30.6279    6.8601 C.2     1  UNL1        0.2266
     31 C          17.9046   29.1890    6.7713 C.3     1  UNL1        0.0949
     32 N          17.3394   31.2209    8.1485 N.am    1  UNL1       -0.2839
     33 O          17.4272   31.3009    5.8024 O.2     1  UNL1       -0.2748
     34 H          17.4486   30.6304    8.9286 H       1  UNL1        0.1549
@<TRIPOS>BOND
     1    17    18    1
     2    19    23   ar
     3    20    21   ar
     4    20    15    1
     5    22    18   ar
     6     9    14   ar
     7    10    13   ar
     8    11    12   ar
     9     1    12    1
    10     1     2    1
    11     2     3    1
    12     3     4    1
    13     4     7    1
    14     5     7    1
    15     5     1    1
    16     6    24    1
    17    25    26   ar
    18    27    28   ar
    19    27    32    1
    20    29    24   ar
    21    31    30    1
    22    15     9    1
    23     7     6   am
    24    32    30   am
    25    18    19   ar
    26    20    23   ar
    27    21    22   ar
    28     9    13   ar
    29    10    11   ar
    30    12    14   ar
    31     6     8    2
    32    24    25   ar
    33    26    27   ar
    34    28    29   ar
    35    30    33    2
    36    15    16    1
    37    32    34    1
@<TRIPOS>MOLECULE
MolPort-020-295-333 MCULE-5513549119 PubChem-110267415
 34 37 0 0 0
SMALL
GASTEIGER

@<TRIPOS>ATOM
      1 C           4.5498   41.5618    9.7868 C.3     1  UNL1        0.0603
      2 C           5.3200   40.3036    9.3767 C.3     1  UNL1        0.0094
      3 C           6.1852   40.5846    8.1503 C.3     1  UNL1        0.0220
      4 C           7.1472   41.7298    8.4481 C.3     1  UNL1        0.0937
      5 C           5.5062   42.7282   10.0427 C.3     1  UNL1        0.0996
      6 C           6.6058   44.2074    8.3373 C.2     1  UNL1        0.2490
      7 N           6.3892   42.8971    8.8921 N.am    1  UNL1       -0.2757
      8 O           6.3400   45.2211    9.0403 O.2     1  UNL1       -0.2699
      9 C           2.1270   42.1188   12.5647 C.ar    1  UNL1        0.2214
     10 C           2.8358   39.8641   12.7016 C.ar    1  UNL1        0.1031
     11 C           3.6577   40.0432   11.5914 C.ar    1  UNL1        0.0356
     12 C           3.6882   41.3018   10.9812 C.ar    1  UNL1        0.0647
     13 N           2.0890   40.8986   13.1668 N.ar    1  UNL1       -0.2120
     14 N           2.9244   42.3089   11.4804 N.ar    1  UNL1       -0.2179
     15 N           1.3404   43.2120   13.0535 N.pl3   1  UNL1       -0.2680
     16 H           1.4573   44.0797   12.6035 H       1  UNL1        0.1565
     17 C          -2.4123   43.0167   17.3334 C.3     1  UNL1        0.0327
     18 C          -1.4399   43.0639   16.2108 C.ar    1  UNL1       -0.0026
     19 C          -0.1526   43.5640   16.4135 C.ar    1  UNL1        0.0960
     20 C           0.4003   43.1652   14.1335 C.ar    1  UNL1        0.1343
     21 C          -0.8807   42.6582   13.8969 C.ar    1  UNL1        0.0342
     22 C          -1.8037   42.6086   14.9430 C.ar    1  UNL1        0.0001
     23 N           0.7319   43.6039   15.3807 N.ar    1  UNL1       -0.2293
     24 C           7.1184   44.4107    6.9616 C.ar    1  UNL1        0.0537
     25 C           6.9562   45.6553    6.3354 C.ar    1  UNL1        0.0058
     26 C           7.4088   45.8580    5.0286 C.ar    1  UNL1        0.0148
     27 C           8.0239   44.8194    4.3237 C.ar    1  UNL1        0.0503
     28 C           8.1768   43.5698    4.9410 C.ar    1  UNL1        0.0148
     29 C           7.7243   43.3674    6.2473 C.ar    1  UNL1        0.0058
     30 C           9.0316   46.2865    2.4794 C.2     1  UNL1        0.2266
     31 C           9.4488   46.3599    1.0553 C.3     1  UNL1        0.0949
     32 N           8.4759   45.0661    2.9852 N.am    1  UNL1       -0.2839
     33 O           9.1729   47.2974    3.2168 O.2     1  UNL1       -0.2748
     34 H           8.3962   44.3200    2.3478 H       1  UNL1        0.1549
@<TRIPOS>BOND
     1    17    18    1
     2    19    23   ar
     3    20    21   ar
     4    20    15    1
     5    22    18   ar
     6     9    14   ar
     7    10    13   ar
     8    11    12   ar
     9     1    12    1
    10     1     2    1
    11     2     3    1
    12     3     4    1
    13     4     7    1
    14     5     7    1
    15     5     1    1
    16     6    24    1
    17    25    26   ar
    18    27    28   ar
    19    27    32    1
    20    29    24   ar
    21    31    30    1
    22    15     9    1
    23     7     6   am
    24    32    30   am
    25    18    19   ar
    26    20    23   ar
    27    21    22   ar
    28     9    13   ar
    29    10    11   ar
    30    12    14   ar
    31     6     8    2
    32    24    25   ar
    33    26    27   ar
    34    28    29   ar
    35    30    33    2
    36    15    16    1
    37    32    34    1
@<TRIPOS>MOLECULE
MolPort-020-295-333 MCULE-5513549119 PubChem-110267415
 34 37 0 0 0
SMALL
GASTEIGER

@<TRIPOS>ATOM
      1 C          13.1067   39.0585   10.1838 C.3     1  UNL1        0.0603
      2 C          12.5905   37.6180   10.1299 C.3     1  UNL1        0.0094
      3 C          11.0936   37.5994    9.8294 C.3     1  UNL1        0.0220
      4 C          10.8222   38.3165    8.5112 C.3     1  UNL1        0.0937
      5 C          12.7971   39.7985    8.8809 C.3     1  UNL1        0.0996
      6 C          10.6133   40.8255    8.1868 C.2     1  UNL1        0.2490
      7 N          11.3763   39.6671    8.5706 N.am    1  UNL1       -0.2757
      8 O          11.2229   41.8502    7.7733 O.2     1  UNL1       -0.2699
      9 C          16.6936   40.0700   10.0921 C.ar    1  UNL1        0.2214
     10 C          16.5095   38.3012   11.6548 C.ar    1  UNL1        0.1031
     11 C          15.1398   38.2175   11.4159 C.ar    1  UNL1        0.0356
     12 C          14.5705   39.0962   10.4879 C.ar    1  UNL1        0.0647
     13 N          17.2587   39.2203   10.9929 N.ar    1  UNL1       -0.2120
     14 N          15.3582   40.0003    9.8482 N.ar    1  UNL1       -0.2179
     15 N          17.4818   41.0403    9.3922 N.pl3   1  UNL1       -0.2680
     16 H          18.4566   40.9996    9.5237 H       1  UNL1        0.1565
     17 C          15.5433   45.1222    5.9254 C.3     1  UNL1        0.0327
     18 C          16.0571   44.0624    6.8314 C.ar    1  UNL1       -0.0026
     19 C          15.2907   42.9254    7.0926 C.ar    1  UNL1        0.0960
     20 C          16.9894   42.0642    8.5195 C.ar    1  UNL1        0.1343
     21 C          17.7821   43.1900    8.2787 C.ar    1  UNL1        0.0342
     22 C          17.3108   44.1930    7.4297 C.ar    1  UNL1        0.0001
     23 N          15.7681   41.9595    7.9231 N.ar    1  UNL1       -0.2293
     24 C           9.1341   40.8642    8.2723 C.ar    1  UNL1        0.0537
     25 C           8.3626   40.4227    7.1872 C.ar    1  UNL1        0.0058
     26 C           6.9669   40.4768    7.2386 C.ar    1  UNL1        0.0148
     27 C           6.3195   40.9792    8.3710 C.ar    1  UNL1        0.0503
     28 C           7.0867   41.4336    9.4530 C.ar    1  UNL1        0.0148
     29 C           8.4819   41.3795    9.4014 C.ar    1  UNL1        0.0058
     30 C           4.0502   41.3775    9.4940 C.2     1  UNL1        0.2266
     31 C           2.5740   41.3615    9.3258 C.3     1  UNL1        0.0949
     32 N           4.8859   41.0178    8.3867 N.am    1  UNL1       -0.2839
     33 O           4.5411   41.7061   10.6060 O.2     1  UNL1       -0.2748
     34 H           4.4286   40.7717    7.5503 H       1  UNL1        0.1549
@<TRIPOS>BOND
     1    17    18    1
     2    19    23   ar
     3    20    21   ar
     4    20    15    1
     5    22    18   ar
     6     9    14   ar
     7    10    13   ar
     8    11    12   ar
     9     1    12    1
    10     1     2    1
    11     2     3    1
    12     3     4    1
    13     4     7    1
    14     5     7    1
    15     5     1    1
    16     6    24    1
    17    25    26   ar
    18    27    28   ar
    19    27    32    1
    20    29    24   ar
    21    31    30    1
    22    15     9    1
    23     7     6   am
    24    32    30   am
    25    18    19   ar
    26    20    23   ar
    27    21    22   ar
    28     9    13   ar
    29    10    11   ar
    30    12    14   ar
    31     6     8    2
    32    24    25   ar
    33    26    27   ar
    34    28    29   ar
    35    30    33    2
    36    15    16    1
    37    32    34    1
@<TRIPOS>MOLECULE
MolPort-020-295-333 MCULE-5513549119 PubChem-110267415
 34 37 0 0 0
SMALL
GASTEIGER

@<TRIPOS>ATOM
      1 C          13.3638   39.2741   10.5834 C.3     1  UNL1        0.0603
      2 C          12.7875   37.9532   10.0663 C.3     1  UNL1        0.0094
      3 C          11.2630   38.0210   10.0145 C.3     1  UNL1        0.0220
      4 C          10.8272   39.1812    9.1259 C.3     1  UNL1        0.0937
      5 C          12.8934   40.4488    9.7234 C.3     1  UNL1        0.0996
      6 C          10.6738   41.6195    9.8151 C.2     1  UNL1        0.2490
      7 N          11.4381   40.4176    9.6082 N.am    1  UNL1       -0.2757
      8 O          11.2558   42.7363    9.7336 O.2     1  UNL1       -0.2699
      9 C          16.9436   40.1367   10.0015 C.ar    1  UNL1        0.2214
     10 C          16.9064   38.2427   11.4213 C.ar    1  UNL1        0.1031
     11 C          15.5137   38.2393   11.3992 C.ar    1  UNL1        0.0356
     12 C          14.8568   39.2220   10.6507 C.ar    1  UNL1        0.0647
     13 N          17.5937   39.1855   10.7263 N.ar    1  UNL1       -0.2120
     14 N          15.5846   40.1461    9.9701 N.ar    1  UNL1       -0.2179
     15 N          17.6661   41.1323    9.2670 N.pl3   1  UNL1       -0.2680
     16 H          18.6464   41.1269    9.3573 H       1  UNL1        0.1565
     17 C          15.3998   45.1068    5.8751 C.3     1  UNL1        0.0327
     18 C          15.9829   44.0646    6.7593 C.ar    1  UNL1       -0.0026
     19 C          17.2793   44.2067    7.2568 C.ar    1  UNL1        0.0960
     20 C          17.1009   42.1349    8.4141 C.ar    1  UNL1        0.1343
     21 C          15.7998   41.9623    7.9331 C.ar    1  UNL1        0.0342
     22 C          15.2404   42.9339    7.1014 C.ar    1  UNL1        0.0001
     23 N          17.8061   43.2483    8.0659 N.ar    1  UNL1       -0.2293
     24 C           9.2267   41.5934   10.1345 C.ar    1  UNL1        0.0537
     25 C           8.8089   41.6256   11.4732 C.ar    1  UNL1        0.0058
     26 C           7.4498   41.5745   11.7951 C.ar    1  UNL1        0.0148
     27 C           6.4866   41.4831   10.7862 C.ar    1  UNL1        0.0503
     28 C           6.9000   41.4377    9.4472 C.ar    1  UNL1        0.0148
     29 C           8.2588   41.4888    9.1256 C.ar    1  UNL1        0.0058
     30 C           4.0555   42.2874   10.6760 C.2     1  UNL1        0.2266
     31 C           2.6695   42.0881   11.1727 C.3     1  UNL1        0.0949
     32 N           5.1018   41.4337   11.1560 N.am    1  UNL1       -0.2839
     33 O           4.2869   43.2026    9.8427 O.2     1  UNL1       -0.2748
     34 H           4.8432   40.7419   11.8070 H       1  UNL1        0.1549
@<TRIPOS>BOND
     1    17    18    1
     2    19    23   ar
     3    20    21   ar
     4    20    15    1
     5    22    18   ar
     6     9    14   ar
     7    10    13   ar
     8    11    12   ar
     9     1    12    1
    10     1     2    1
    11     2     3    1
    12     3     4    1
    13     4     7    1
    14     5     7    1
    15     5     1    1
    16     6    24    1
    17    25    26   ar
    18    27    28   ar
    19    27    32    1
    20    29    24   ar
    21    31    30    1
    22    15     9    1
    23     7     6   am
    24    32    30   am
    25    18    19   ar
    26    20    23   ar
    27    21    22   ar
    28     9    13   ar
    29    10    11   ar
    30    12    14   ar
    31     6     8    2
    32    24    25   ar
    33    26    27   ar
    34    28    29   ar
    35    30    33    2
    36    15    16    1
    37    32    34    1
@<TRIPOS>MOLECULE
MolPort-020-295-333 MCULE-5513549119 PubChem-110267415
 34 37 0 0 0
SMALL
GASTEIGER

@<TRIPOS>ATOM
      1 C          12.3227   43.0337   17.0694 C.3     1  UNL1        0.0603
      2 C          13.1788   44.0808   16.3518 C.3     1  UNL1        0.0094
      3 C          13.4620   43.6445   14.9162 C.3     1  UNL1        0.0220
      4 C          12.1479   43.4254   14.1740 C.3     1  UNL1        0.0937
      5 C          11.0225   42.7751   16.3055 C.3     1  UNL1        0.0996
      6 C          10.7039   41.3398   14.2698 C.2     1  UNL1        0.2490
      7 N          11.3283   42.4667   14.9114 N.am    1  UNL1       -0.2757
      8 O           9.6528   40.8547   14.7723 O.2     1  UNL1       -0.2699
      9 C          12.8797   44.0229   20.6202 C.ar    1  UNL1        0.2214
     10 C          10.5388   43.9803   20.2691 C.ar    1  UNL1        0.1031
     11 C          10.7332   43.6016   18.9428 C.ar    1  UNL1        0.0356
     12 C          12.0441   43.4400   18.4814 C.ar    1  UNL1        0.0647
     13 N          11.6087   44.1832   21.0805 N.ar    1  UNL1       -0.2120
     14 N          13.0853   43.6535   19.3283 N.ar    1  UNL1       -0.2179
     15 N          14.0102   44.2360   21.4742 N.pl3   1  UNL1       -0.2680
     16 H          13.8405   44.6901   22.3310 H       1  UNL1        0.1565
     17 C          19.3974   42.7323   20.3995 C.3     1  UNL1        0.0327
     18 C          17.9948   43.1337   20.6819 C.ar    1  UNL1       -0.0026
     19 C          16.9573   42.2088   20.5536 C.ar    1  UNL1        0.0960
     20 C          15.3635   43.8526   21.2025 C.ar    1  UNL1        0.1343
     21 C          16.3791   44.8030   21.3407 C.ar    1  UNL1        0.0342
     22 C          17.7010   44.4388   21.0782 C.ar    1  UNL1        0.0001
     23 N          15.6759   42.5839   20.8141 N.ar    1  UNL1       -0.2293
     24 C          11.2589   40.7177   13.0444 C.ar    1  UNL1        0.0537
     25 C          12.5612   40.1969   13.0570 C.ar    1  UNL1        0.0058
     26 C          13.1117   39.6308   11.9037 C.ar    1  UNL1        0.0148
     27 C          12.3735   39.5823   10.7177 C.ar    1  UNL1        0.0503
     28 C          11.0760   40.1131   10.6968 C.ar    1  UNL1        0.0148
     29 C          10.5259   40.6790   11.8498 C.ar    1  UNL1        0.0058
     30 C          13.0085   37.5991    9.2232 C.2     1  UNL1        0.2266
     31 C          13.6765   37.1682    7.9680 C.3     1  UNL1        0.0949
     32 N          12.9722   38.9928    9.5554 N.am    1  UNL1       -0.2839
     33 O          12.4864   36.7329    9.9733 O.2     1  UNL1       -0.2748
     34 H          13.4027   39.6093    8.9199 H       1  UNL1        0.1549
@<TRIPOS>BOND
     1    17    18    1
     2    19    23   ar
     3    20    21   ar
     4    20    15    1
     5    22    18   ar
     6     9    14   ar
     7    10    13   ar
     8    11    12   ar
     9     1    12    1
    10     1     2    1
    11     2     3    1
    12     3     4    1
    13     4     7    1
    14     5     7    1
    15     5     1    1
    16     6    24    1
    17    25    26   ar
    18    27    28   ar
    19    27    32    1
    20    29    24   ar
    21    31    30    1
    22    15     9    1
    23     7     6   am
    24    32    30   am
    25    18    19   ar
    26    20    23   ar
    27    21    22   ar
    28     9    13   ar
    29    10    11   ar
    30    12    14   ar
    31     6     8    2
    32    24    25   ar
    33    26    27   ar
    34    28    29   ar
    35    30    33    2
    36    15    16    1
    37    32    34    1
@<TRIPOS>MOLECULE
MolPort-020-295-333 MCULE-5513549119 PubChem-110267415
 34 37 0 0 0
SMALL
GASTEIGER

@<TRIPOS>ATOM
      1 C           2.5851   42.3487   11.6035 C.3     1  UNL1        0.0603
      2 C           1.8854   41.5952   10.4691 C.3     1  UNL1        0.0094
      3 C           2.8663   41.3107    9.3340 C.3     1  UNL1        0.0220
      4 C           4.0494   40.5069    9.8627 C.3     1  UNL1        0.0937
      5 C           3.8009   41.5691   12.1084 C.3     1  UNL1        0.0996
      6 C           6.0804   41.4447   11.0625 C.2     1  UNL1        0.2490
      7 N           4.6609   41.2218   10.9805 N.am    1  UNL1       -0.2757
      8 O           6.6127   41.5883   12.1977 O.2     1  UNL1       -0.2699
      9 C           0.9350   44.1133   14.4427 C.ar    1  UNL1        0.2214
     10 C          -0.2386   42.0847   14.1082 C.ar    1  UNL1        0.1031
     11 C           0.6126   41.7523   13.0570 C.ar    1  UNL1        0.0356
     12 C           1.6358   42.6452   12.7204 C.ar    1  UNL1        0.0647
     13 N          -0.0641   43.2524   14.7792 N.ar    1  UNL1       -0.2120
     14 N           1.7739   43.8026   13.4192 N.ar    1  UNL1       -0.2179
     15 N           1.1216   45.3457   15.1492 N.pl3   1  UNL1       -0.2680
     16 H           0.6331   46.1304   14.8103 H       1  UNL1        0.1565
     17 C           4.4174   46.1681   19.7206 C.3     1  UNL1        0.0327
     18 C           3.5593   45.9626   18.5251 C.ar    1  UNL1       -0.0026
     19 C           2.9442   44.7297   18.3020 C.ar    1  UNL1        0.0960
     20 C           1.9498   45.5472   16.3006 C.ar    1  UNL1        0.1343
     21 C           2.5509   46.7941   16.4946 C.ar    1  UNL1        0.0342
     22 C           3.3596   47.0001   17.6137 C.ar    1  UNL1        0.0001
     23 N           2.1600   44.5494   17.2052 N.ar    1  UNL1       -0.2293
     24 C           6.9409   41.5254    9.8584 C.ar    1  UNL1        0.0537
     25 C           6.4396   41.1103    8.6158 C.ar    1  UNL1        0.0058
     26 C           7.2447   41.1534    7.4741 C.ar    1  UNL1        0.0148
     27 C           8.5650   41.6048    7.5561 C.ar    1  UNL1        0.0503
     28 C           9.0745   42.0088    8.7983 C.ar    1  UNL1        0.0148
     29 C           8.2696   41.9654    9.9395 C.ar    1  UNL1        0.0058
     30 C           9.9445   40.5113    5.6930 C.2     1  UNL1        0.2266
     31 C          10.7416   40.7341    4.4592 C.3     1  UNL1        0.0949
     32 N           9.3597   41.6355    6.3625 N.am    1  UNL1       -0.2839
     33 O           9.7970   39.3393    6.1293 O.2     1  UNL1       -0.2748
     34 H           9.5200   42.5202    5.9616 H       1  UNL1        0.1549
@<TRIPOS>BOND
     1    17    18    1
     2    19    23   ar
     3    20    21   ar
     4    20    15    1
     5    22    18   ar
     6     9    14   ar
     7    10    13   ar
     8    11    12   ar
     9     1    12    1
    10     1     2    1
    11     2     3    1
    12     3     4    1
    13     4     7    1
    14     5     7    1
    15     5     1    1
    16     6    24    1
    17    25    26   ar
    18    27    28   ar
    19    27    32    1
    20    29    24   ar
    21    31    30    1
    22    15     9    1
    23     7     6   am
    24    32    30   am
    25    18    19   ar
    26    20    23   ar
    27    21    22   ar
    28     9    13   ar
    29    10    11   ar
    30    12    14   ar
    31     6     8    2
    32    24    25   ar
    33    26    27   ar
    34    28    29   ar
    35    30    33    2
    36    15    16    1
    37    32    34    1
@<TRIPOS>MOLECULE
MolPort-020-295-333 MCULE-5513549119 PubChem-110267415
 34 37 0 0 0
SMALL
GASTEIGER

@<TRIPOS>ATOM
      1 C          15.9703   36.1663    8.6630 C.3     1  UNL1        0.0603
      2 C          15.1484   34.9963    9.2108 C.3     1  UNL1        0.0094
      3 C          15.0938   33.8603    8.1920 C.3     1  UNL1        0.0220
      4 C          16.5085   33.4074    7.8468 C.3     1  UNL1        0.0937
      5 C          17.3770   35.7092    8.2715 C.3     1  UNL1        0.0996
      6 C          18.0683   34.5112    6.1757 C.2     1  UNL1        0.2490
      7 N          17.2854   34.5543    7.3826 N.am    1  UNL1       -0.2757
      8 O          19.0728   35.2679    6.0706 O.2     1  UNL1       -0.2699
      9 C          16.7290   39.4970   10.1554 C.ar    1  UNL1        0.2214
     10 C          15.5311   38.2626   11.7820 C.ar    1  UNL1        0.1031
     11 C          15.4450   37.1782   10.9122 C.ar    1  UNL1        0.0356
     12 C          16.0256   37.2933    9.6444 C.ar    1  UNL1        0.0647
     13 N          16.1678   39.3968   11.3915 N.ar    1  UNL1       -0.2120
     14 N          16.6532   38.4471    9.2955 N.ar    1  UNL1       -0.2179
     15 N          17.4015   40.6923    9.7409 N.pl3   1  UNL1       -0.2680
     16 H          18.2901   40.8599   10.1302 H       1  UNL1        0.1565
     17 C          15.4538   44.5798    6.0624 C.3     1  UNL1        0.0327
     18 C          15.9700   43.5708    7.0234 C.ar    1  UNL1       -0.0026
     19 C          15.2055   42.4484    7.3460 C.ar    1  UNL1        0.0960
     20 C          16.9068   41.6672    8.8152 C.ar    1  UNL1        0.1343
     21 C          17.6977   42.7796    8.5136 C.ar    1  UNL1        0.0342
     22 C          17.2241   43.7350    7.6126 C.ar    1  UNL1        0.0001
     23 N          15.6851   41.5290    8.2265 N.ar    1  UNL1       -0.2293
     24 C          17.7295   33.6176    5.0428 C.ar    1  UNL1        0.0537
     25 C          16.7515   34.0087    4.1165 C.ar    1  UNL1        0.0058
     26 C          16.3991   33.1679    3.0570 C.ar    1  UNL1        0.0148
     27 C          17.0123   31.9204    2.9097 C.ar    1  UNL1        0.0503
     28 C          17.9815   31.5198    3.8404 C.ar    1  UNL1        0.0148
     29 C          18.3334   32.3605    4.8994 C.ar    1  UNL1        0.0058
     30 C          15.6936   29.9973    1.8456 C.2     1  UNL1        0.2266
     31 C          15.4122   29.2399    0.5988 C.3     1  UNL1        0.0949
     32 N          16.6248   31.0862    1.8093 N.am    1  UNL1       -0.2839
     33 O          15.1100   29.6694    2.9121 O.2     1  UNL1       -0.2748
     34 H          17.0416   31.2817    0.9391 H       1  UNL1        0.1549
@<TRIPOS>BOND
     1    17    18    1
     2    19    23   ar
     3    20    21   ar
     4    20    15    1
     5    22    18   ar
     6     9    14   ar
     7    10    13   ar
     8    11    12   ar
     9     1    12    1
    10     1     2    1
    11     2     3    1
    12     3     4    1
    13     4     7    1
    14     5     7    1
    15     5     1    1
    16     6    24    1
    17    25    26   ar
    18    27    28   ar
    19    27    32    1
    20    29    24   ar
    21    31    30    1
    22    15     9    1
    23     7     6   am
    24    32    30   am
    25    18    19   ar
    26    20    23   ar
    27    21    22   ar
    28     9    13   ar
    29    10    11   ar
    30    12    14   ar
    31     6     8    2
    32    24    25   ar
    33    26    27   ar
    34    28    29   ar
    35    30    33    2
    36    15    16    1
    37    32    34    1
@<TRIPOS>MOLECULE
MolPort-020-295-333 MCULE-5513549119 PubChem-110267415
 34 37 0 0 0
SMALL
GASTEIGER

@<TRIPOS>ATOM
      1 C           6.6224   41.4716   10.6636 C.3     1  UNL1        0.0603
      2 C           7.1737   41.7286   12.0688 C.3     1  UNL1        0.0094
      3 C           8.6591   41.3802   12.1302 C.3     1  UNL1        0.0220
      4 C           9.4248   42.1978   11.0954 C.3     1  UNL1        0.0937
      5 C           7.4156   42.2535    9.6146 C.3     1  UNL1        0.0996
      6 C           9.6451   41.6574    8.6249 C.2     1  UNL1        0.2490
      7 N           8.8406   41.9779    9.7745 N.am    1  UNL1       -0.2757
      8 O           9.2210   41.9643    7.4765 O.2     1  UNL1       -0.2699
      9 C           3.0692   41.9587   11.6807 C.ar    1  UNL1        0.2214
     10 C           3.2172   42.5118    9.3836 C.ar    1  UNL1        0.1031
     11 C           4.5801   42.2245    9.3905 C.ar    1  UNL1        0.0356
     12 C           5.1649   41.7977   10.5878 C.ar    1  UNL1        0.0647
     13 N           2.4892   42.3748   10.5218 N.ar    1  UNL1       -0.2120
     14 N           4.3983   41.6744   11.7031 N.ar    1  UNL1       -0.2179
     15 N           2.3035   41.8131   12.8829 N.pl3   1  UNL1       -0.2680
     16 H           2.5883   41.1083   13.5085 H       1  UNL1        0.1565
     17 C          -2.2144   44.9298   14.4036 C.3     1  UNL1        0.0327
     18 C          -1.0298   44.1231   14.0111 C.ar    1  UNL1       -0.0026
     19 C          -1.1922   42.9258   13.3122 C.ar    1  UNL1        0.0960
     20 C           1.1637   42.5931   13.2631 C.ar    1  UNL1        0.1343
     21 C           1.3610   43.7874   13.9621 C.ar    1  UNL1        0.0342
     22 C           0.2565   44.5545   14.3369 C.ar    1  UNL1        0.0001
     23 N          -0.1028   42.1930   12.9563 N.ar    1  UNL1       -0.2293
     24 C          10.9511   40.9661    8.7393 C.ar    1  UNL1        0.0537
     25 C          11.3215   40.0147    7.7774 C.ar    1  UNL1        0.0058
     26 C          12.5370   39.3328    7.8832 C.ar    1  UNL1        0.0148
     27 C          13.3986   39.5847    8.9547 C.ar    1  UNL1        0.0503
     28 C          13.0270   40.5256    9.9255 C.ar    1  UNL1        0.0148
     29 C          11.8118   41.2070    9.8195 C.ar    1  UNL1        0.0058
     30 C          15.3888   38.5717   10.2128 C.2     1  UNL1        0.2266
     31 C          16.6590   37.8097   10.0973 C.3     1  UNL1        0.0949
     32 N          14.6374   38.8657    9.0283 N.am    1  UNL1       -0.2839
     33 O          14.9948   38.9463   11.3486 O.2     1  UNL1       -0.2748
     34 H          15.0103   38.5406    8.1771 H       1  UNL1        0.1549
@<TRIPOS>BOND
     1    17    18    1
     2    19    23   ar
     3    20    21   ar
     4    20    15    1
     5    22    18   ar
     6     9    14   ar
     7    10    13   ar
     8    11    12   ar
     9     1    12    1
    10     1     2    1
    11     2     3    1
    12     3     4    1
    13     4     7    1
    14     5     7    1
    15     5     1    1
    16     6    24    1
    17    25    26   ar
    18    27    28   ar
    19    27    32    1
    20    29    24   ar
    21    31    30    1
    22    15     9    1
    23     7     6   am
    24    32    30   am
    25    18    19   ar
    26    20    23   ar
    27    21    22   ar
    28     9    13   ar
    29    10    11   ar
    30    12    14   ar
    31     6     8    2
    32    24    25   ar
    33    26    27   ar
    34    28    29   ar
    35    30    33    2
    36    15    16    1
    37    32    34    1
