@<TRIPOS>MOLECULE
MolPort-005-062-829 12580336 CSCCCN1CCC(CC1)n1nccc1NC(=O)Nc1ccccc1C CSSS00159485000 MCULE-4715176907 PubChem-25371691 ZINC000012580336
 29 31 0 0 0
SMALL
GASTEIGER

@<TRIPOS>ATOM
      1 C           8.5609   41.9843    6.7255 C.ar    1  UNL1        0.1230
      2 C           9.7315   41.5681    6.1007 C.ar    1  UNL1        0.0566
      3 C          10.6836   41.6826    7.0965 C.ar    1  UNL1        0.1337
      4 N          10.1126   42.1333    8.2219 N.ar    1  UNL1       -0.2394
      5 N           8.8226   42.3191    8.0067 N.ar    1  UNL1       -0.1666
      6 C           8.9061   43.1719   11.0596 C.3     1  UNL1        0.0741
      7 C          10.1561   43.5544   10.2452 C.3     1  UNL1        0.0418
      8 C          10.7942   42.3785    9.4902 C.3     1  UNL1        0.1093
      9 C          10.8851   41.0910   10.3244 C.3     1  UNL1        0.0418
     10 C           9.8485   41.0346   11.4481 C.3     1  UNL1        0.0741
     11 N           8.6344   41.7340   11.0430 N.3     1  UNL1       -0.2725
     12 C           7.6277   41.4822   12.0615 C.3     1  UNL1        0.0730
     13 C           6.2481   41.4057   11.4285 C.3     1  UNL1        0.0290
     14 C           6.3391   41.6689    9.9359 C.3     1  UNL1        0.0590
     15 C           4.0455   40.6316   10.6910 C.3     1  UNL1        0.0692
     16 S           4.7919   41.1721    9.1268 S.3     1  UNL1       -0.1393
     17 C          13.1560   42.2889    7.2224 C.2     1  UNL1        0.3092
     18 N          12.0797   41.3757    6.9836 N.am    1  UNL1       -0.2536
     19 N          14.5023   41.8230    7.0654 N.am    1  UNL1       -0.2683
     20 O          12.9213   43.4791    7.5641 O.2     1  UNL1       -0.2521
     21 H          12.3186   40.4580    6.7191 H       1  UNL1        0.1578
     22 H          14.6126   40.8823    6.7967 H       1  UNL1        0.1564
     23 C          15.7088   42.5801    7.2577 C.ar    1  UNL1        0.0476
     24 C          16.0249   43.6225    6.3661 C.ar    1  UNL1       -0.0083
     25 C          15.1288   43.9563    5.2227 C.3     1  UNL1        0.0323
     26 C          17.1961   44.3664    6.5429 C.ar    1  UNL1       -0.0030
     27 C          18.0588   44.0808    7.6037 C.ar    1  UNL1       -0.0002
     28 C          17.7527   43.0488    8.4923 C.ar    1  UNL1        0.0013
     29 C          16.5841   42.3030    8.3200 C.ar    1  UNL1        0.0144
@<TRIPOS>BOND
     1    15    16    1
     2    14    16    1
     3    14    13    1
     4    13    12    1
     5    12    11    1
     6     6    11    1
     7     6     7    1
     8     7     8    1
     9     8     9    1
    10     8     4    1
    11     9    10    1
    12    10    11    1
    13     1     2   ar
    14     3    18    1
    15     3     4   ar
    16    17    19   am
    17    24    26   ar
    18    25    24    1
    19    27    28   ar
    20    29    23   ar
    21     4     5   ar
    22    18    17   am
    23    19    23    1
    24     1     5   ar
    25     2     3   ar
    26    17    20    2
    27    23    24   ar
    28    26    27   ar
    29    28    29   ar
    30    18    21    1
    31    19    22    1
@<TRIPOS>MOLECULE
MolPort-005-062-829 12580336 CSCCCN1CCC(CC1)n1nccc1NC(=O)Nc1ccccc1C CSSS00159485000 MCULE-4715176907 PubChem-25371691 ZINC000012580336
 29 31 0 0 0
SMALL
GASTEIGER

@<TRIPOS>ATOM
      1 C           8.1234   41.9132    8.5768 C.ar    1  UNL1        0.1230
      2 C           9.2061   42.6286    8.0771 C.ar    1  UNL1        0.0566
      3 C           9.9980   41.6512    7.5036 C.ar    1  UNL1        0.1337
      4 N           9.4215   40.4512    7.6567 N.ar    1  UNL1       -0.2394
      5 N           8.2814   40.6000    8.3073 N.ar    1  UNL1       -0.1666
      6 C          12.3202   39.0791    8.2062 C.3     1  UNL1        0.0741
      7 C          11.4685   39.2653    6.9366 C.3     1  UNL1        0.0418
      8 C           9.9544   39.1773    7.1811 C.3     1  UNL1        0.1093
      9 C           9.5503   38.0273    8.1170 C.3     1  UNL1        0.0418
     10 C          10.6800   37.5967    9.0543 C.3     1  UNL1        0.0741
     11 N          11.5194   38.7430    9.3841 N.3     1  UNL1       -0.2725
     12 C          12.4480   38.3180   10.4192 C.3     1  UNL1        0.0730
     13 C          13.1209   39.5263   11.0492 C.3     1  UNL1        0.0290
     14 C          14.5778   39.5963   10.6271 C.3     1  UNL1        0.0590
     15 C          16.0528   37.4684   10.1763 C.3     1  UNL1        0.0692
     16 S          15.5649   38.4461   11.6261 S.3     1  UNL1       -0.1393
     17 C          12.4781   42.2374    7.4648 C.2     1  UNL1        0.3092
     18 N          11.2517   41.8493    6.8366 N.am    1  UNL1       -0.2536
     19 N          13.6487   42.3936    6.6527 N.am    1  UNL1       -0.2683
     20 O          12.5247   42.4372    8.7084 O.2     1  UNL1       -0.2521
     21 H          11.2707   41.7060    5.8628 H       1  UNL1        0.1578
     22 H          13.5406   42.2217    5.6893 H       1  UNL1        0.1564
     23 C          14.9632   42.7741    7.0921 C.ar    1  UNL1        0.0476
     24 C          15.5356   43.9697    6.6186 C.ar    1  UNL1       -0.0083
     25 C          14.8013   44.8511    5.6669 C.3     1  UNL1        0.0323
     26 C          16.8141   44.3505    7.0392 C.ar    1  UNL1       -0.0030
     27 C          17.5307   43.5485    7.9304 C.ar    1  UNL1       -0.0002
     28 C          16.9703   42.3613    8.4047 C.ar    1  UNL1        0.0013
     29 C          15.6937   41.9767    7.9877 C.ar    1  UNL1        0.0144
@<TRIPOS>BOND
     1    15    16    1
     2    14    16    1
     3    14    13    1
     4    13    12    1
     5    12    11    1
     6     6    11    1
     7     6     7    1
     8     7     8    1
     9     8     9    1
    10     8     4    1
    11     9    10    1
    12    10    11    1
    13     1     2   ar
    14     3    18    1
    15     3     4   ar
    16    17    19   am
    17    24    26   ar
    18    25    24    1
    19    27    28   ar
    20    29    23   ar
    21     4     5   ar
    22    18    17   am
    23    19    23    1
    24     1     5   ar
    25     2     3   ar
    26    17    20    2
    27    23    24   ar
    28    26    27   ar
    29    28    29   ar
    30    18    21    1
    31    19    22    1
@<TRIPOS>MOLECULE
MolPort-005-062-829 12580336 CSCCCN1CCC(CC1)n1nccc1NC(=O)Nc1ccccc1C CSSS00159485000 MCULE-4715176907 PubChem-25371691 ZINC000012580336
 29 31 0 0 0
SMALL
GASTEIGER

@<TRIPOS>ATOM
      1 C           8.6868   39.5078    5.2034 C.ar    1  UNL1        0.1230
      2 C           9.9043   40.0195    4.7679 C.ar    1  UNL1        0.0566
      3 C          10.0923   41.1272    5.5735 C.ar    1  UNL1        0.1337
      4 N           9.0601   41.2552    6.4185 N.ar    1  UNL1       -0.2394
      5 N           8.2010   40.2754    6.2018 N.ar    1  UNL1       -0.1666
      6 C           6.3438   42.5111    7.6958 C.3     1  UNL1        0.0741
      7 C           7.6428   43.1413    7.1594 C.3     1  UNL1        0.0418
      8 C           8.9012   42.3013    7.4252 C.3     1  UNL1        0.1093
      9 C           8.9577   41.7134    8.8441 C.3     1  UNL1        0.0418
     10 C           7.5755   41.5631    9.4823 C.3     1  UNL1        0.0741
     11 N           6.5791   41.2822    8.4548 N.3     1  UNL1       -0.2725
     12 C           5.3342   40.9598    9.1336 C.3     1  UNL1        0.0730
     13 C           4.3279   42.0832    8.9461 C.3     1  UNL1        0.0290
     14 C           3.0951   41.8320    9.7961 C.3     1  UNL1        0.0590
     15 C           3.8432   40.1279   11.6517 C.3     1  UNL1        0.0692
     16 S           3.5326   41.9140   11.5561 S.3     1  UNL1       -0.1393
     17 C          12.4017   41.9031    6.3221 C.2     1  UNL1        0.3092
     18 N          11.2077   42.0275    5.5421 N.am    1  UNL1       -0.2536
     19 N          13.4280   42.8924    6.1730 N.am    1  UNL1       -0.2683
     20 O          12.5450   40.9411    7.1236 O.2     1  UNL1       -0.2521
     21 H          11.1473   42.7976    4.9316 H       1  UNL1        0.1578
     22 H          13.2499   43.6161    5.5296 H       1  UNL1        0.1564
     23 C          14.6891   42.9426    6.8609 C.ar    1  UNL1        0.0476
     24 C          15.5355   44.0528    6.6807 C.ar    1  UNL1       -0.0083
     25 C          15.1470   45.1806    5.7870 C.3     1  UNL1        0.0323
     26 C          16.7651   44.1129    7.3448 C.ar    1  UNL1       -0.0030
     27 C          17.1610   43.0737    8.1899 C.ar    1  UNL1       -0.0002
     28 C          16.3275   41.9693    8.3740 C.ar    1  UNL1        0.0013
     29 C          15.0986   41.9045    7.7130 C.ar    1  UNL1        0.0144
@<TRIPOS>BOND
     1    15    16    1
     2    14    16    1
     3    14    13    1
     4    13    12    1
     5    12    11    1
     6     6    11    1
     7     6     7    1
     8     7     8    1
     9     8     9    1
    10     8     4    1
    11     9    10    1
    12    10    11    1
    13     1     2   ar
    14     3    18    1
    15     3     4   ar
    16    17    19   am
    17    24    26   ar
    18    25    24    1
    19    27    28   ar
    20    29    23   ar
    21     4     5   ar
    22    18    17   am
    23    19    23    1
    24     1     5   ar
    25     2     3   ar
    26    17    20    2
    27    23    24   ar
    28    26    27   ar
    29    28    29   ar
    30    18    21    1
    31    19    22    1
@<TRIPOS>MOLECULE
MolPort-005-062-829 12580336 CSCCCN1CCC(CC1)n1nccc1NC(=O)Nc1ccccc1C CSSS00159485000 MCULE-4715176907 PubChem-25371691 ZINC000012580336
 29 31 0 0 0
SMALL
GASTEIGER

@<TRIPOS>ATOM
      1 C          11.0481   37.7575    9.5113 C.ar    1  UNL1        0.1230
      2 C          11.8057   38.1852    8.4265 C.ar    1  UNL1        0.0566
      3 C          11.9069   39.5496    8.6251 C.ar    1  UNL1        0.1337
      4 N          11.2558   39.8957    9.7441 N.ar    1  UNL1       -0.2394
      5 N          10.7310   38.8134   10.2902 N.ar    1  UNL1       -0.1666
      6 C           9.1103   42.2393    9.0432 C.3     1  UNL1        0.0741
      7 C          10.6402   42.2328    9.2202 C.3     1  UNL1        0.0418
      8 C          11.1419   41.2470   10.2863 C.3     1  UNL1        0.1093
      9 C          10.3015   41.2551   11.5730 C.3     1  UNL1        0.0418
     10 C           8.8705   41.7468   11.3470 C.3     1  UNL1        0.0741
     11 N           8.4224   41.3805   10.0082 N.3     1  UNL1       -0.2725
     12 C           7.0060   41.6982    9.9222 C.3     1  UNL1        0.0730
     13 C           6.3314   41.4562   11.2624 C.3     1  UNL1        0.0290
     14 C           4.8491   41.1929   11.0649 C.3     1  UNL1        0.0590
     15 C           2.7576   41.3318    9.4796 C.3     1  UNL1        0.0692
     16 S           4.1560   42.4076    9.9075 S.3     1  UNL1       -0.1393
     17 C          13.8715   41.0728    8.0625 C.2     1  UNL1        0.3092
     18 N          12.5949   40.4868    7.7860 N.am    1  UNL1       -0.2536
     19 N          14.4247   41.9968    7.1168 N.am    1  UNL1       -0.2683
     20 O          14.4947   40.7799    9.1181 O.2     1  UNL1       -0.2521
     21 H          12.1512   40.7500    6.9474 H       1  UNL1        0.1578
     22 H          13.8843   42.1798    6.3144 H       1  UNL1        0.1564
     23 C          15.6828   42.6852    7.2128 C.ar    1  UNL1        0.0476
     24 C          15.9687   43.7381    6.3234 C.ar    1  UNL1       -0.0083
     25 C          14.9878   44.1535    5.2808 C.3     1  UNL1        0.0323
     26 C          17.1896   44.4155    6.4070 C.ar    1  UNL1       -0.0030
     27 C          18.1320   44.0527    7.3720 C.ar    1  UNL1       -0.0002
     28 C          17.8563   43.0097    8.2577 C.ar    1  UNL1        0.0013
     29 C          16.6384   42.3301    8.1782 C.ar    1  UNL1        0.0144
@<TRIPOS>BOND
     1    15    16    1
     2    14    16    1
     3    14    13    1
     4    13    12    1
     5    12    11    1
     6     6    11    1
     7     6     7    1
     8     7     8    1
     9     8     9    1
    10     8     4    1
    11     9    10    1
    12    10    11    1
    13     1     2   ar
    14     3    18    1
    15     3     4   ar
    16    17    19   am
    17    24    26   ar
    18    25    24    1
    19    27    28   ar
    20    29    23   ar
    21     4     5   ar
    22    18    17   am
    23    19    23    1
    24     1     5   ar
    25     2     3   ar
    26    17    20    2
    27    23    24   ar
    28    26    27   ar
    29    28    29   ar
    30    18    21    1
    31    19    22    1
@<TRIPOS>MOLECULE
MolPort-005-062-829 12580336 CSCCCN1CCC(CC1)n1nccc1NC(=O)Nc1ccccc1C CSSS00159485000 MCULE-4715176907 PubChem-25371691 ZINC000012580336
 29 31 0 0 0
SMALL
GASTEIGER

@<TRIPOS>ATOM
      1 C          10.5920   37.9545    8.9049 C.ar    1  UNL1        0.1230
      2 C          11.6892   38.8025    8.8007 C.ar    1  UNL1        0.0566
      3 C          11.3842   39.5868    7.7038 C.ar    1  UNL1        0.1337
      4 N          10.1956   39.2243    7.2021 N.ar    1  UNL1       -0.2394
      5 N           9.7060   38.2334    7.9255 N.ar    1  UNL1       -0.1666
      6 C           7.0461   39.8876    6.7249 C.3     1  UNL1        0.0741
      7 C           8.1291   39.2371    5.8439 C.3     1  UNL1        0.0418
      8 C           9.5345   39.8236    6.0458 C.3     1  UNL1        0.1093
      9 C           9.5518   41.3577    6.1354 C.3     1  UNL1        0.0418
     10 C           8.2147   41.9430    6.5936 C.3     1  UNL1        0.0741
     11 N           7.5510   41.0179    7.5054 N.3     1  UNL1       -0.2725
     12 C           6.3923   41.7044    8.0533 C.3     1  UNL1        0.0730
     13 C           6.5629   41.9104    9.5494 C.3     1  UNL1        0.0290
     14 C           5.2643   41.6032   10.2739 C.3     1  UNL1        0.0590
     15 C           2.7638   41.2802    9.5323 C.3     1  UNL1        0.0692
     16 S           3.9361   42.6626    9.6344 S.3     1  UNL1       -0.1393
     17 C          13.4785   41.0375    7.6320 C.2     1  UNL1        0.3092
     18 N          12.1892   40.6386    7.1547 N.am    1  UNL1       -0.2536
     19 N          14.1560   42.1128    6.9694 N.am    1  UNL1       -0.2683
     20 O          14.0055   40.4526    8.6163 O.2     1  UNL1       -0.2521
     21 H          11.8238   41.1287    6.3829 H       1  UNL1        0.1578
     22 H          13.6866   42.5244    6.2081 H       1  UNL1        0.1564
     23 C          15.4463   42.6554    7.2957 C.ar    1  UNL1        0.0476
     24 C          15.9383   43.7602    6.5754 C.ar    1  UNL1       -0.0083
     25 C          15.1433   44.3795    5.4772 C.3     1  UNL1        0.0323
     26 C          17.1926   44.2969    6.8838 C.ar    1  UNL1       -0.0030
     27 C          17.9644   43.7415    7.9069 C.ar    1  UNL1       -0.0002
     28 C          17.4839   42.6459    8.6260 C.ar    1  UNL1        0.0013
     29 C          16.2318   42.1062    8.3218 C.ar    1  UNL1        0.0144
@<TRIPOS>BOND
     1    15    16    1
     2    14    16    1
     3    14    13    1
     4    13    12    1
     5    12    11    1
     6     6    11    1
     7     6     7    1
     8     7     8    1
     9     8     9    1
    10     8     4    1
    11     9    10    1
    12    10    11    1
    13     1     2   ar
    14     3    18    1
    15     3     4   ar
    16    17    19   am
    17    24    26   ar
    18    25    24    1
    19    27    28   ar
    20    29    23   ar
    21     4     5   ar
    22    18    17   am
    23    19    23    1
    24     1     5   ar
    25     2     3   ar
    26    17    20    2
    27    23    24   ar
    28    26    27   ar
    29    28    29   ar
    30    18    21    1
    31    19    22    1
@<TRIPOS>MOLECULE
MolPort-005-062-829 12580336 CSCCCN1CCC(CC1)n1nccc1NC(=O)Nc1ccccc1C CSSS00159485000 MCULE-4715176907 PubChem-25371691 ZINC000012580336
 29 31 0 0 0
SMALL
GASTEIGER

@<TRIPOS>ATOM
      1 C           7.4634   42.0650    8.2811 C.ar    1  UNL1        0.1230
      2 C           8.5500   42.7452    7.7425 C.ar    1  UNL1        0.0566
      3 C           9.2614   41.7513    7.0965 C.ar    1  UNL1        0.1337
      4 N           8.6372   40.5749    7.2463 N.ar    1  UNL1       -0.2394
      5 N           7.5432   40.7553    7.9643 N.ar    1  UNL1       -0.1666
      6 C          11.6537   39.4164    6.8644 C.3     1  UNL1        0.0741
      7 C          10.4131   39.4407    5.9520 C.3     1  UNL1        0.0418
      8 C           9.0814   39.2937    6.7037 C.3     1  UNL1        0.1093
      9 C           9.1099   38.2131    7.7961 C.3     1  UNL1        0.0418
     10 C          10.5198   37.9307    8.3183 C.3     1  UNL1        0.0741
     11 N          11.3249   39.1457    8.2645 N.3     1  UNL1       -0.2725
     12 C          12.5783   38.8668    8.9468 C.3     1  UNL1        0.0730
     13 C          12.3688   37.8098   10.0186 C.3     1  UNL1        0.0290
     14 C          13.5869   36.9083   10.1131 C.3     1  UNL1        0.0590
     15 C          14.2739   38.8554   11.7391 C.3     1  UNL1        0.0692
     16 S          14.3252   37.0409   11.7662 S.3     1  UNL1       -0.1393
     17 C          11.6782   42.5262    6.8637 C.2     1  UNL1        0.3092
     18 N          10.4845   41.9126    6.3659 N.am    1  UNL1       -0.2536
     19 N          12.8207   42.6094    6.0022 N.am    1  UNL1       -0.2683
     20 O          11.7210   42.9835    8.0374 O.2     1  UNL1       -0.2521
     21 H          10.5051   41.5720    5.4424 H       1  UNL1        0.1578
     22 H          12.7175   42.2323    5.0987 H       1  UNL1        0.1564
     23 C          14.1008   43.1838    6.3144 C.ar    1  UNL1        0.0476
     24 C          14.9473   42.5367    7.2343 C.ar    1  UNL1       -0.0083
     25 C          14.5394   41.2631    7.8925 C.3     1  UNL1        0.0323
     26 C          16.1954   43.0859    7.5461 C.ar    1  UNL1       -0.0030
     27 C          16.6098   44.2782    6.9480 C.ar    1  UNL1       -0.0002
     28 C          15.7763   44.9261    6.0348 C.ar    1  UNL1        0.0013
     29 C          14.5290   44.3816    5.7201 C.ar    1  UNL1        0.0144
@<TRIPOS>BOND
     1    15    16    1
     2    14    16    1
     3    14    13    1
     4    13    12    1
     5    12    11    1
     6     6    11    1
     7     6     7    1
     8     7     8    1
     9     8     9    1
    10     8     4    1
    11     9    10    1
    12    10    11    1
    13     1     2   ar
    14     3    18    1
    15     3     4   ar
    16    17    19   am
    17    24    26   ar
    18    25    24    1
    19    27    28   ar
    20    29    23   ar
    21     4     5   ar
    22    18    17   am
    23    19    23    1
    24     1     5   ar
    25     2     3   ar
    26    17    20    2
    27    23    24   ar
    28    26    27   ar
    29    28    29   ar
    30    18    21    1
    31    19    22    1
@<TRIPOS>MOLECULE
MolPort-005-062-829 12580336 CSCCCN1CCC(CC1)n1nccc1NC(=O)Nc1ccccc1C CSSS00159485000 MCULE-4715176907 PubChem-25371691 ZINC000012580336
 29 31 0 0 0
SMALL
GASTEIGER

@<TRIPOS>ATOM
      1 C           7.4865   41.7687    7.5021 C.ar    1  UNL1        0.1230
      2 C           8.5112   42.5275    6.9472 C.ar    1  UNL1        0.0566
      3 C           9.4376   41.5781    6.5580 C.ar    1  UNL1        0.1337
      4 N           8.9886   40.3529    6.8632 N.ar    1  UNL1       -0.2394
      5 N           7.8033   40.4582    7.4368 N.ar    1  UNL1       -0.1666
      6 C          11.8954   39.3353    7.9132 C.3     1  UNL1        0.0741
      7 C          11.2052   39.3064    6.5366 C.3     1  UNL1        0.0418
      8 C           9.6851   39.0956    6.6038 C.3     1  UNL1        0.1093
      9 C           9.2599   38.0131    7.6084 C.3     1  UNL1        0.0418
     10 C          10.2889   37.7934    8.7189 C.3     1  UNL1        0.0741
     11 N          10.9779   39.0443    9.0156 N.3     1  UNL1       -0.2725
     12 C          11.7949   38.8204   10.1975 C.3     1  UNL1        0.0730
     13 C          11.8235   40.0710   11.0606 C.3     1  UNL1        0.0290
     14 C          10.7635   41.0543   10.5968 C.3     1  UNL1        0.0590
     15 C           8.7294   42.6634   11.0206 C.3     1  UNL1        0.0692
     16 S           9.5343   41.3005   11.9097 S.3     1  UNL1       -0.1393
     17 C          11.8392   42.4313    6.5380 C.2     1  UNL1        0.3092
     18 N          10.6985   41.8247    5.9214 N.am    1  UNL1       -0.2536
     19 N          13.0302   42.6076    5.7604 N.am    1  UNL1       -0.2683
     20 O          11.7943   42.8022    7.7418 O.2     1  UNL1       -0.2521
     21 H          10.7874   41.5536    4.9792 H       1  UNL1        0.1578
     22 H          12.9954   42.2953    4.8274 H       1  UNL1        0.1564
     23 C          14.2699   43.1910    6.1950 C.ar    1  UNL1        0.0476
     24 C          15.0185   42.5596    7.2061 C.ar    1  UNL1       -0.0083
     25 C          14.5479   41.2934    7.8362 C.3     1  UNL1        0.0323
     26 C          16.2264   43.1177    7.6373 C.ar    1  UNL1       -0.0030
     27 C          16.6975   44.3034    7.0688 C.ar    1  UNL1       -0.0002
     28 C          15.9611   44.9359    6.0657 C.ar    1  UNL1        0.0013
     29 C          14.7542   44.3824    5.6316 C.ar    1  UNL1        0.0144
@<TRIPOS>BOND
     1    15    16    1
     2    14    16    1
     3    14    13    1
     4    13    12    1
     5    12    11    1
     6     6    11    1
     7     6     7    1
     8     7     8    1
     9     8     9    1
    10     8     4    1
    11     9    10    1
    12    10    11    1
    13     1     2   ar
    14     3    18    1
    15     3     4   ar
    16    17    19   am
    17    24    26   ar
    18    25    24    1
    19    27    28   ar
    20    29    23   ar
    21     4     5   ar
    22    18    17   am
    23    19    23    1
    24     1     5   ar
    25     2     3   ar
    26    17    20    2
    27    23    24   ar
    28    26    27   ar
    29    28    29   ar
    30    18    21    1
    31    19    22    1
@<TRIPOS>MOLECULE
MolPort-005-062-829 12580336 CSCCCN1CCC(CC1)n1nccc1NC(=O)Nc1ccccc1C CSSS00159485000 MCULE-4715176907 PubChem-25371691 ZINC000012580336
 29 31 0 0 0
SMALL
GASTEIGER

@<TRIPOS>ATOM
      1 C           9.0790   39.7418    5.2936 C.ar    1  UNL1        0.1230
      2 C          10.2797   40.3661    4.9735 C.ar    1  UNL1        0.0566
      3 C          10.3764   41.3748    5.9140 C.ar    1  UNL1        0.1337
      4 N           9.3102   41.3438    6.7251 N.ar    1  UNL1       -0.2394
      5 N           8.5162   40.3545    6.3565 N.ar    1  UNL1       -0.1666
      6 C           9.1691   40.7132    9.9141 C.3     1  UNL1        0.0741
      7 C           8.2823   41.5415    8.9656 C.3     1  UNL1        0.0418
      8 C           9.0574   42.2486    7.8434 C.3     1  UNL1        0.1093
      9 C          10.3592   42.9114    8.3208 C.3     1  UNL1        0.0418
     10 C          10.9205   42.2743    9.5933 C.3     1  UNL1        0.0741
     11 N          10.5968   40.8524    9.6245 N.3     1  UNL1       -0.2725
     12 C          11.3145   40.2680   10.7459 C.3     1  UNL1        0.0730
     13 C          12.8063   40.2393   10.4569 C.3     1  UNL1        0.0290
     14 C          13.5240   39.3798   11.4824 C.3     1  UNL1        0.0590
     15 C          15.3046   37.4477   11.5394 C.3     1  UNL1        0.0692
     16 S          13.6235   37.6668   10.8900 S.3     1  UNL1       -0.1393
     17 C          12.7385   42.0651    6.5773 C.2     1  UNL1        0.3092
     18 N          11.4392   42.3293    6.0375 N.am    1  UNL1       -0.2536
     19 N          13.6925   43.1334    6.6307 N.am    1  UNL1       -0.2683
     20 O          13.0351   40.9142    6.9968 O.2     1  UNL1       -0.2521
     21 H          11.2600   43.2452    5.7240 H       1  UNL1        0.1578
     22 H          13.3939   44.0060    6.2861 H       1  UNL1        0.1564
     23 C          15.0377   43.0690    7.1327 C.ar    1  UNL1        0.0476
     24 C          15.9636   44.0653    6.7699 C.ar    1  UNL1       -0.0083
     25 C          15.5733   45.1892    5.8719 C.3     1  UNL1        0.0323
     26 C          17.2755   44.0134    7.2521 C.ar    1  UNL1       -0.0030
     27 C          17.6755   42.9744    8.0956 C.ar    1  UNL1       -0.0002
     28 C          16.7636   41.9824    8.4602 C.ar    1  UNL1        0.0013
     29 C          15.4522   42.0299    7.9812 C.ar    1  UNL1        0.0144
@<TRIPOS>BOND
     1    15    16    1
     2    14    16    1
     3    14    13    1
     4    13    12    1
     5    12    11    1
     6     6    11    1
     7     6     7    1
     8     7     8    1
     9     8     9    1
    10     8     4    1
    11     9    10    1
    12    10    11    1
    13     1     2   ar
    14     3    18    1
    15     3     4   ar
    16    17    19   am
    17    24    26   ar
    18    25    24    1
    19    27    28   ar
    20    29    23   ar
    21     4     5   ar
    22    18    17   am
    23    19    23    1
    24     1     5   ar
    25     2     3   ar
    26    17    20    2
    27    23    24   ar
    28    26    27   ar
    29    28    29   ar
    30    18    21    1
    31    19    22    1
@<TRIPOS>MOLECULE
MolPort-005-062-829 12580336 CSCCCN1CCC(CC1)n1nccc1NC(=O)Nc1ccccc1C CSSS00159485000 MCULE-4715176907 PubChem-25371691 ZINC000012580336
 29 31 0 0 0
SMALL
GASTEIGER

@<TRIPOS>ATOM
      1 C           8.9214   38.6630    4.3738 C.ar    1  UNL1        0.1230
      2 C          10.1043   39.3921    4.3192 C.ar    1  UNL1        0.0566
      3 C           9.8574   40.4653    5.1550 C.ar    1  UNL1        0.1337
      4 N           8.6203   40.3719    5.6615 N.ar    1  UNL1       -0.2394
      5 N           8.0436   39.2796    5.1932 N.ar    1  UNL1       -0.1666
      6 C           8.7565   40.4863    8.9105 C.3     1  UNL1        0.0741
      7 C           7.6019   40.6252    7.9007 C.3     1  UNL1        0.0418
      8 C           7.9997   41.3158    6.5873 C.3     1  UNL1        0.1093
      9 C           8.8879   42.5534    6.7899 C.3     1  UNL1        0.0418
     10 C           9.6656   42.5198    8.1068 C.3     1  UNL1        0.0741
     11 N           9.9858   41.1420    8.4625 N.3     1  UNL1       -0.2725
     12 C          10.8824   41.1858    9.6064 C.3     1  UNL1        0.0730
     13 C          10.3042   40.3796   10.7578 C.3     1  UNL1        0.0290
     14 C          10.2726   41.2183   12.0231 C.3     1  UNL1        0.0590
     15 C           9.1362   41.1457   14.3917 C.3     1  UNL1        0.0692
     16 S           8.5783   41.2938   12.6705 S.3     1  UNL1       -0.1393
     17 C          12.0581   41.3907    6.0475 C.2     1  UNL1        0.3092
     18 N          10.7606   41.5363    5.4605 N.am    1  UNL1       -0.2536
     19 N          12.8402   42.5670    6.2902 N.am    1  UNL1       -0.2683
     20 O          12.5017   40.2489    6.3442 O.2     1  UNL1       -0.2521
     21 H          10.4627   42.4503    5.2483 H       1  UNL1        0.1578
     22 H          12.4323   43.4258    6.0343 H       1  UNL1        0.1564
     23 C          14.1554   42.6289    6.8667 C.ar    1  UNL1        0.0476
     24 C          15.0350   43.6586    6.4826 C.ar    1  UNL1       -0.0083
     25 C          14.6264   44.6888    5.4859 C.3     1  UNL1        0.0323
     26 C          16.3174   43.7292    7.0367 C.ar    1  UNL1       -0.0030
     27 C          16.7334   42.7804    7.9734 C.ar    1  UNL1       -0.0002
     28 C          15.8673   41.7562    8.3597 C.ar    1  UNL1        0.0013
     29 C          14.5856   41.6813    7.8093 C.ar    1  UNL1        0.0144
@<TRIPOS>BOND
     1    15    16    1
     2    14    16    1
     3    14    13    1
     4    13    12    1
     5    12    11    1
     6     6    11    1
     7     6     7    1
     8     7     8    1
     9     8     9    1
    10     8     4    1
    11     9    10    1
    12    10    11    1
    13     1     2   ar
    14     3    18    1
    15     3     4   ar
    16    17    19   am
    17    24    26   ar
    18    25    24    1
    19    27    28   ar
    20    29    23   ar
    21     4     5   ar
    22    18    17   am
    23    19    23    1
    24     1     5   ar
    25     2     3   ar
    26    17    20    2
    27    23    24   ar
    28    26    27   ar
    29    28    29   ar
    30    18    21    1
    31    19    22    1
@<TRIPOS>MOLECULE
MolPort-005-062-829 12580336 CSCCCN1CCC(CC1)n1nccc1NC(=O)Nc1ccccc1C CSSS00159485000 MCULE-4715176907 PubChem-25371691 ZINC000012580336
 29 31 0 0 0
SMALL
GASTEIGER

@<TRIPOS>ATOM
      1 C           8.3392   45.2127    9.5540 C.ar    1  UNL1        0.1230
      2 C           9.0644   44.2551   10.2547 C.ar    1  UNL1        0.0566
      3 C           8.6147   43.0609    9.7228 C.ar    1  UNL1        0.1337
      4 N           7.6933   43.3015    8.7800 N.ar    1  UNL1       -0.2394
      5 N           7.5193   44.6063    8.6696 N.ar    1  UNL1       -0.1666
      6 C           8.5791   41.8506    6.0055 C.3     1  UNL1        0.0741
      7 C           7.2583   42.4781    6.4891 C.3     1  UNL1        0.0418
      8 C           6.9912   42.2930    7.9905 C.3     1  UNL1        0.1093
      9 C           7.3062   40.8776    8.4995 C.3     1  UNL1        0.0418
     10 C           8.3306   40.1459    7.6302 C.3     1  UNL1        0.0741
     11 N           9.2708   41.1014    7.0553 N.3     1  UNL1       -0.2725
     12 C          10.3237   40.3375    6.4056 C.3     1  UNL1        0.0730
     13 C          10.4178   40.7170    4.9370 C.3     1  UNL1        0.0290
     14 C          10.8787   39.5266    4.1149 C.3     1  UNL1        0.0590
     15 C           9.9737   37.1604    3.4154 C.3     1  UNL1        0.0692
     16 S           9.4966   38.8880    3.1261 S.3     1  UNL1       -0.1393
     17 C          10.3977   41.2801   10.1044 C.2     1  UNL1        0.3092
     18 N           9.0435   41.7442   10.0948 N.am    1  UNL1       -0.2536
     19 N          10.6599   39.9289   10.5041 N.am    1  UNL1       -0.2683
     20 O          11.3393   42.0471    9.7674 O.2     1  UNL1       -0.2521
     21 H           8.3466   41.1043   10.3670 H       1  UNL1        0.1578
     22 H           9.8779   39.3856   10.7543 H       1  UNL1        0.1564
     23 C          11.9407   39.2809   10.5792 C.ar    1  UNL1        0.0476
     24 C          12.0865   37.9701   10.0873 C.ar    1  UNL1       -0.0083
     25 C          10.9337   37.2394    9.4884 C.3     1  UNL1        0.0323
     26 C          13.3280   37.3292   10.1549 C.ar    1  UNL1       -0.0030
     27 C          14.4298   37.9842   10.7098 C.ar    1  UNL1       -0.0002
     28 C          14.2936   39.2841   11.1997 C.ar    1  UNL1        0.0013
     29 C          13.0559   39.9285   11.1345 C.ar    1  UNL1        0.0144
@<TRIPOS>BOND
     1    15    16    1
     2    14    16    1
     3    14    13    1
     4    13    12    1
     5    12    11    1
     6     6    11    1
     7     6     7    1
     8     7     8    1
     9     8     9    1
    10     8     4    1
    11     9    10    1
    12    10    11    1
    13     1     2   ar
    14     3    18    1
    15     3     4   ar
    16    17    19   am
    17    24    26   ar
    18    25    24    1
    19    27    28   ar
    20    29    23   ar
    21     4     5   ar
    22    18    17   am
    23    19    23    1
    24     1     5   ar
    25     2     3   ar
    26    17    20    2
    27    23    24   ar
    28    26    27   ar
    29    28    29   ar
    30    18    21    1
    31    19    22    1
