@<TRIPOS>MOLECULE
MolPort-023-267-087 77485327 CSSS00159611192 MCULE-1191038835 PubChem-70766615 ZINC000077485327 ZINC77485327
 27 29 0 0 0
SMALL
GASTEIGER

@<TRIPOS>ATOM
      1 C          10.4207   41.5234    7.6696 C.ar    1  UNL1        0.0463
      2 C          11.0439   41.2377    6.4345 C.ar    1  UNL1       -0.0069
      3 C          10.4391   40.3098    5.4369 C.3     1  UNL1        0.0324
      4 C          12.3018   41.7781    6.1512 C.ar    1  UNL1        0.0145
      5 C          12.9645   42.5827    7.0873 C.ar    1  UNL1        0.0652
      6 C          12.3461   42.8526    8.3149 C.ar    1  UNL1        0.0188
      7 C          11.0906   42.3163    8.6063 C.ar    1  UNL1        0.0158
      8 C          14.4008   44.1953    5.9058 C.ar    1  UNL1        0.1022
      9 C          15.7318   44.5654    5.9383 C.ar    1  UNL1        0.1195
     10 C          15.4576   42.9282    7.2897 C.ar    1  UNL1        0.1508
     11 N          14.2352   43.1685    6.7595 N.ar    1  UNL1       -0.2888
     12 N          16.3905   43.7720    6.8073 N.ar    1  UNL1       -0.2247
     13 C          15.8049   41.8225    8.2058 C.ar    1  UNL1        0.0727
     14 C          17.0867   41.6883    8.7468 C.ar    1  UNL1        0.1048
     15 C          16.3929   39.8049    9.9934 C.ar    1  UNL1        0.1392
     16 C          14.8222   40.9226    8.6262 C.ar    1  UNL1        0.1048
     17 N          17.3583   40.6863    9.6223 N.ar    1  UNL1       -0.2291
     18 N          15.1315   39.9333    9.5042 N.ar    1  UNL1       -0.2291
     19 C          16.7055   38.7268   10.9703 C.3     1  UNL1        0.0657
     20 C          15.4919   38.4446   11.8338 C.3     1  UNL1        0.0084
     21 C           7.9023   41.7021    7.9577 C.2     1  UNL1        0.2261
     22 O           7.8876   42.9477    7.7695 O.2     1  UNL1       -0.2748
     23 N           9.1408   40.9867    8.0281 N.am    1  UNL1       -0.2842
     24 H           9.1110   40.0557    8.3469 H       1  UNL1        0.1548
     25 C           6.6134   40.9738    8.1415 C.3     1  UNL1        0.0854
     26 C           4.6927   42.2228    9.1327 C.3     1  UNL1        0.0005
     27 C           5.9262   41.3914    9.4322 C.3     1  UNL1        0.0096
@<TRIPOS>BOND
     1    26    27    1
     2    27    25    1
     3    25    21    1
     4    21    23   am
     5     2     4   ar
     6     3     2    1
     7     5     6   ar
     8     5    11    1
     9     7     1   ar
    10     9    12   ar
    11    10    13    1
    12    10    11   ar
    13    14    17   ar
    14    15    18   ar
    15    19    15    1
    16    19    20    1
    17    16    13   ar
    18    23     1    1
    19    11     8   ar
    20    21    22    2
    21     1     2   ar
    22     4     5   ar
    23     6     7   ar
    24     8     9   ar
    25    10    12   ar
    26    13    14   ar
    27    15    17   ar
    28    16    18   ar
    29    23    24    1
@<TRIPOS>MOLECULE
MolPort-023-267-087 77485327 CSSS00159611192 MCULE-1191038835 PubChem-70766615 ZINC000077485327 ZINC77485327
 27 29 0 0 0
SMALL
GASTEIGER

@<TRIPOS>ATOM
      1 C          10.5054   40.0367    9.3415 C.ar    1  UNL1        0.0463
      2 C          11.0256   40.5142   10.5650 C.ar    1  UNL1       -0.0069
      3 C          10.2049   41.3158   11.5167 C.3     1  UNL1        0.0324
      4 C          12.3708   40.2978   10.8780 C.ar    1  UNL1        0.0145
      5 C          13.2179   39.6320    9.9823 C.ar    1  UNL1        0.0652
      6 C          12.6985   39.1714    8.7656 C.ar    1  UNL1        0.0188
      7 C          11.3567   39.3840    8.4447 C.ar    1  UNL1        0.0158
      8 C          14.9772   38.4343   11.2190 C.ar    1  UNL1        0.1022
      9 C          16.3585   38.3968   11.2149 C.ar    1  UNL1        0.1195
     10 C          15.7241   39.8969    9.8261 C.ar    1  UNL1        0.1508
     11 N          14.5856   39.3766   10.3419 N.ar    1  UNL1       -0.2888
     12 N          16.8234   39.3118   10.3402 N.ar    1  UNL1       -0.2247
     13 C          15.8123   41.0388    8.8929 C.ar    1  UNL1        0.0727
     14 C          14.7621   41.3706    8.0324 C.ar    1  UNL1        0.1048
     15 C          15.9693   43.2387    7.2352 C.ar    1  UNL1        0.1392
     16 C          16.9299   41.8772    8.9113 C.ar    1  UNL1        0.1048
     17 N          14.8592   42.4551    7.2208 N.ar    1  UNL1       -0.2291
     18 N          16.9909   42.9537    8.0851 N.ar    1  UNL1       -0.2291
     19 C          16.0473   44.4348    6.3534 C.3     1  UNL1        0.0657
     20 C          14.7068   44.6729    5.6866 C.3     1  UNL1        0.0084
     21 C           8.6349   41.4242    8.3247 C.2     1  UNL1        0.2261
     22 O           9.3350   42.4696    8.2614 O.2     1  UNL1       -0.2748
     23 N           9.1407   40.2411    8.9534 N.am    1  UNL1       -0.2842
     24 H           8.5028   39.5129    9.1326 H       1  UNL1        0.1548
     25 C           7.2517   41.4339    7.7660 C.3     1  UNL1        0.0854
     26 C           6.6458   39.5498    6.2446 C.3     1  UNL1        0.0005
     27 C           7.2379   40.9445    6.3263 C.3     1  UNL1        0.0096
@<TRIPOS>BOND
     1    26    27    1
     2    27    25    1
     3    25    21    1
     4    21    23   am
     5     2     4   ar
     6     3     2    1
     7     5     6   ar
     8     5    11    1
     9     7     1   ar
    10     9    12   ar
    11    10    13    1
    12    10    11   ar
    13    14    17   ar
    14    15    18   ar
    15    19    15    1
    16    19    20    1
    17    16    13   ar
    18    23     1    1
    19    11     8   ar
    20    21    22    2
    21     1     2   ar
    22     4     5   ar
    23     6     7   ar
    24     8     9   ar
    25    10    12   ar
    26    13    14   ar
    27    15    17   ar
    28    16    18   ar
    29    23    24    1
@<TRIPOS>MOLECULE
MolPort-023-267-087 77485327 CSSS00159611192 MCULE-1191038835 PubChem-70766615 ZINC000077485327 ZINC77485327
 27 29 0 0 0
SMALL
GASTEIGER

@<TRIPOS>ATOM
      1 C          12.0902   40.0230    8.3368 C.ar    1  UNL1        0.0463
      2 C          12.0467   40.4643    6.9956 C.ar    1  UNL1       -0.0069
      3 C          11.1311   39.8548    5.9896 C.3     1  UNL1        0.0324
      4 C          12.9327   41.4552    6.5626 C.ar    1  UNL1        0.0145
      5 C          13.8810   42.0019    7.4372 C.ar    1  UNL1        0.0652
      6 C          13.9266   41.5515    8.7629 C.ar    1  UNL1        0.0188
      7 C          13.0462   40.5617    9.2033 C.ar    1  UNL1        0.0158
      8 C          14.3398   44.1457    6.3180 C.ar    1  UNL1        0.1022
      9 C          15.4264   44.9857    6.1656 C.ar    1  UNL1        0.1195
     10 C          16.0707   43.2411    7.2253 C.ar    1  UNL1        0.1508
     11 N          14.7512   43.0533    6.9874 N.ar    1  UNL1       -0.2888
     12 N          16.5081   44.4180    6.7366 N.ar    1  UNL1       -0.2247
     13 C          16.9895   42.2636    7.8441 C.ar    1  UNL1        0.0727
     14 C          16.6198   41.5087    8.9607 C.ar    1  UNL1        0.1048
     15 C          18.6915   40.3736    8.9132 C.ar    1  UNL1        0.1392
     16 C          18.2351   42.0058    7.2660 C.ar    1  UNL1        0.1048
     17 N          17.4726   40.5857    9.4754 N.ar    1  UNL1       -0.2291
     18 N          19.0612   41.0740    7.8087 N.ar    1  UNL1       -0.2291
     19 C          19.6029   39.3426    9.4796 C.3     1  UNL1        0.0657
     20 C          18.8904   38.5662   10.5693 C.3     1  UNL1        0.0084
     21 C          11.6454   37.6952    9.2539 C.2     1  UNL1        0.2261
     22 O          12.8094   37.2849    9.0011 O.2     1  UNL1       -0.2748
     23 N          11.2220   38.9987    8.8386 N.am    1  UNL1       -0.2842
     24 H          10.2619   39.2070    8.9025 H       1  UNL1        0.1548
     25 C          10.6904   36.7967    9.9653 C.3     1  UNL1        0.0854
     26 C          12.9175   35.8974   10.6455 C.3     1  UNL1        0.0005
     27 C          11.4227   35.8485   10.9019 C.3     1  UNL1        0.0096
@<TRIPOS>BOND
     1    26    27    1
     2    27    25    1
     3    25    21    1
     4    21    23   am
     5     2     4   ar
     6     3     2    1
     7     5     6   ar
     8     5    11    1
     9     7     1   ar
    10     9    12   ar
    11    10    13    1
    12    10    11   ar
    13    14    17   ar
    14    15    18   ar
    15    19    15    1
    16    19    20    1
    17    16    13   ar
    18    23     1    1
    19    11     8   ar
    20    21    22    2
    21     1     2   ar
    22     4     5   ar
    23     6     7   ar
    24     8     9   ar
    25    10    12   ar
    26    13    14   ar
    27    15    17   ar
    28    16    18   ar
    29    23    24    1
@<TRIPOS>MOLECULE
MolPort-023-267-087 77485327 CSSS00159611192 MCULE-1191038835 PubChem-70766615 ZINC000077485327 ZINC77485327
 27 29 0 0 0
SMALL
GASTEIGER

@<TRIPOS>ATOM
      1 C          10.7882   39.9539    9.0719 C.ar    1  UNL1        0.0463
      2 C          11.4239   40.3228   10.2782 C.ar    1  UNL1       -0.0069
      3 C          10.6730   40.9160   11.4211 C.3     1  UNL1        0.0324
      4 C          12.8115   40.2003   10.3963 C.ar    1  UNL1        0.0145
      5 C          13.5849   39.7369    9.3239 C.ar    1  UNL1        0.0652
      6 C          12.9495   39.3837    8.1264 C.ar    1  UNL1        0.0188
      7 C          11.5645   39.5038    7.9996 C.ar    1  UNL1        0.0158
      8 C          15.8695   40.5841    9.6731 C.ar    1  UNL1        0.1022
      9 C          17.1178   40.0381    9.9034 C.ar    1  UNL1        0.1195
     10 C          15.7330   38.4366    9.5890 C.ar    1  UNL1        0.1508
     11 N          15.0039   39.5721    9.4797 N.ar    1  UNL1       -0.2888
     12 N          17.0290   38.6935    9.8525 N.ar    1  UNL1       -0.2247
     13 C          15.2426   37.0633    9.3519 C.ar    1  UNL1        0.0727
     14 C          15.7606   36.2615    8.3308 C.ar    1  UNL1        0.1048
     15 C          14.3765   34.4674    9.0005 C.ar    1  UNL1        0.1392
     16 C          14.2972   36.4962   10.2102 C.ar    1  UNL1        0.1048
     17 N          15.3190   34.9873    8.1709 N.ar    1  UNL1       -0.2291
     18 N          13.8801   35.2176   10.0192 N.ar    1  UNL1       -0.2291
     19 C          13.9214   33.0620    8.8215 C.3     1  UNL1        0.0657
     20 C          15.0849   32.1943    8.3839 C.3     1  UNL1        0.0084
     21 C           8.7056   41.2403    8.3892 C.2     1  UNL1        0.2261
     22 O           9.3173   42.3371    8.2892 O.2     1  UNL1       -0.2748
     23 N           9.3724   40.0720    8.8806 N.am    1  UNL1       -0.2842
     24 H           8.8164   39.2909    9.1040 H       1  UNL1        0.1548
     25 C           7.2617   41.1705    8.0211 C.3     1  UNL1        0.0854
     26 C           6.6932   39.5022    6.2534 C.3     1  UNL1        0.0005
     27 C           7.0863   40.9418    6.5280 C.3     1  UNL1        0.0096
@<TRIPOS>BOND
     1    26    27    1
     2    27    25    1
     3    25    21    1
     4    21    23   am
     5     2     4   ar
     6     3     2    1
     7     5     6   ar
     8     5    11    1
     9     7     1   ar
    10     9    12   ar
    11    10    13    1
    12    10    11   ar
    13    14    17   ar
    14    15    18   ar
    15    19    15    1
    16    19    20    1
    17    16    13   ar
    18    23     1    1
    19    11     8   ar
    20    21    22    2
    21     1     2   ar
    22     4     5   ar
    23     6     7   ar
    24     8     9   ar
    25    10    12   ar
    26    13    14   ar
    27    15    17   ar
    28    16    18   ar
    29    23    24    1
@<TRIPOS>MOLECULE
MolPort-023-267-087 77485327 CSSS00159611192 MCULE-1191038835 PubChem-70766615 ZINC000077485327 ZINC77485327
 27 29 0 0 0
SMALL
GASTEIGER

@<TRIPOS>ATOM
      1 C           9.2863   40.6271    9.0564 C.ar    1  UNL1        0.0463
      2 C           9.9775   39.5316    8.4928 C.ar    1  UNL1       -0.0069
      3 C           9.3291   38.5939    7.5325 C.3     1  UNL1        0.0324
      4 C          11.2904   39.2615    8.8901 C.ar    1  UNL1        0.0145
      5 C          11.9237   40.0509    9.8591 C.ar    1  UNL1        0.0652
      6 C          11.2285   41.1287   10.4225 C.ar    1  UNL1        0.0188
      7 C           9.9170   41.4049   10.0322 C.ar    1  UNL1        0.0158
      8 C          13.6666   38.9992   11.2431 C.ar    1  UNL1        0.1022
      9 C          15.0430   38.8831   11.2062 C.ar    1  UNL1        0.1195
     10 C          14.4322   40.1403    9.5850 C.ar    1  UNL1        0.1508
     11 N          13.2896   39.7876   10.2198 N.ar    1  UNL1       -0.2888
     12 N          15.5195   39.5966   10.1657 N.ar    1  UNL1       -0.2247
     13 C          14.5420   41.0873    8.4564 C.ar    1  UNL1        0.0727
     14 C          13.4894   41.2907    7.5595 C.ar    1  UNL1        0.1048
     15 C          14.7428   42.9378    6.4199 C.ar    1  UNL1        0.1392
     16 C          15.6858   41.8761    8.3091 C.ar    1  UNL1        0.1048
     17 N          13.6082   42.2032    6.5609 N.ar    1  UNL1       -0.2291
     18 N          15.7679   42.7794    7.2980 N.ar    1  UNL1       -0.2291
     19 C          14.8448   43.9477    5.3318 C.3     1  UNL1        0.0657
     20 C          15.4745   45.2194    5.8651 C.3     1  UNL1        0.0084
     21 C           6.9839   41.5670    9.5792 C.2     1  UNL1        0.2261
     22 O           7.2219   41.6834   10.8108 O.2     1  UNL1       -0.2748
     23 N           7.9338   40.9467    8.7052 N.am    1  UNL1       -0.2842
     24 H           7.6352   40.7228    7.7942 H       1  UNL1        0.1548
     25 C           5.6825   42.0529    9.0354 C.3     1  UNL1        0.0854
     26 C           3.3127   41.7252    9.7480 C.3     1  UNL1        0.0005
     27 C           4.5763   41.0357    9.2683 C.3     1  UNL1        0.0096
@<TRIPOS>BOND
     1    26    27    1
     2    27    25    1
     3    25    21    1
     4    21    23   am
     5     2     4   ar
     6     3     2    1
     7     5     6   ar
     8     5    11    1
     9     7     1   ar
    10     9    12   ar
    11    10    13    1
    12    10    11   ar
    13    14    17   ar
    14    15    18   ar
    15    19    15    1
    16    19    20    1
    17    16    13   ar
    18    23     1    1
    19    11     8   ar
    20    21    22    2
    21     1     2   ar
    22     4     5   ar
    23     6     7   ar
    24     8     9   ar
    25    10    12   ar
    26    13    14   ar
    27    15    17   ar
    28    16    18   ar
    29    23    24    1
@<TRIPOS>MOLECULE
MolPort-023-267-087 77485327 CSSS00159611192 MCULE-1191038835 PubChem-70766615 ZINC000077485327 ZINC77485327
 27 29 0 0 0
SMALL
GASTEIGER

@<TRIPOS>ATOM
      1 C          10.2334   41.6783    7.9941 C.ar    1  UNL1        0.0463
      2 C          10.7862   42.0460    9.2410 C.ar    1  UNL1       -0.0069
      3 C          10.3792   43.2909    9.9528 C.3     1  UNL1        0.0324
      4 C          11.7992   41.2664    9.8073 C.ar    1  UNL1        0.0145
      5 C          12.2907   40.1353    9.1425 C.ar    1  UNL1        0.0652
      6 C          11.7463   39.7828    7.9009 C.ar    1  UNL1        0.0188
      7 C          10.7352   40.5562    7.3278 C.ar    1  UNL1        0.0158
      8 C          13.0457   38.1868   10.4434 C.ar    1  UNL1        0.1022
      9 C          14.2570   37.6143   10.7817 C.ar    1  UNL1        0.1195
     10 C          14.6471   39.4204    9.7011 C.ar    1  UNL1        0.1508
     11 N          13.2984   39.3192    9.7620 N.ar    1  UNL1       -0.2888
     12 N          15.2579   38.3875   10.3137 N.ar    1  UNL1       -0.2247
     13 C          15.4085   40.5552    9.1398 C.ar    1  UNL1        0.0727
     14 C          16.7276   40.8181    9.5202 C.ar    1  UNL1        0.1048
     15 C          16.8361   42.6211    7.9969 C.ar    1  UNL1        0.1392
     16 C          14.8481   41.3507    8.1372 C.ar    1  UNL1        0.1048
     17 N          17.4130   41.8420    8.9493 N.ar    1  UNL1       -0.2291
     18 N          15.5651   42.3658    7.5889 N.ar    1  UNL1       -0.2291
     19 C          17.6114   43.7248    7.3685 C.3     1  UNL1        0.0657
     20 C          17.0030   44.0847    6.0275 C.3     1  UNL1        0.0084
     21 C           7.8048   42.3290    7.6253 C.2     1  UNL1        0.2261
     22 O           7.3595   41.3743    8.3160 O.2     1  UNL1       -0.2748
     23 N           9.2058   42.4441    7.3520 N.am    1  UNL1       -0.2842
     24 H           9.4843   43.0988    6.6715 H       1  UNL1        0.1548
     25 C           6.8541   43.3304    7.0604 C.3     1  UNL1        0.0854
     26 C           4.7899   44.4550    7.9005 C.3     1  UNL1        0.0005
     27 C           6.2649   44.2062    8.1551 C.3     1  UNL1        0.0096
@<TRIPOS>BOND
     1    26    27    1
     2    27    25    1
     3    25    21    1
     4    21    23   am
     5     2     4   ar
     6     3     2    1
     7     5     6   ar
     8     5    11    1
     9     7     1   ar
    10     9    12   ar
    11    10    13    1
    12    10    11   ar
    13    14    17   ar
    14    15    18   ar
    15    19    15    1
    16    19    20    1
    17    16    13   ar
    18    23     1    1
    19    11     8   ar
    20    21    22    2
    21     1     2   ar
    22     4     5   ar
    23     6     7   ar
    24     8     9   ar
    25    10    12   ar
    26    13    14   ar
    27    15    17   ar
    28    16    18   ar
    29    23    24    1
@<TRIPOS>MOLECULE
MolPort-023-267-087 77485327 CSSS00159611192 MCULE-1191038835 PubChem-70766615 ZINC000077485327 ZINC77485327
 27 29 0 0 0
SMALL
GASTEIGER

@<TRIPOS>ATOM
      1 C           8.7360   41.4391    9.4446 C.ar    1  UNL1        0.0463
      2 C           9.8437   41.5367   10.3158 C.ar    1  UNL1       -0.0069
      3 C           9.6916   41.5072   11.7983 C.3     1  UNL1        0.0324
      4 C          11.1234   41.7385    9.7903 C.ar    1  UNL1        0.0145
      5 C          11.3197   41.8683    8.4091 C.ar    1  UNL1        0.0652
      6 C          10.2154   41.7822    7.5515 C.ar    1  UNL1        0.0188
      7 C           8.9340   41.5818    8.0679 C.ar    1  UNL1        0.0158
      8 C          13.0446   43.0628    7.1218 C.ar    1  UNL1        0.1022
      9 C          14.4051   42.9409    6.9130 C.ar    1  UNL1        0.1195
     10 C          13.7617   41.2949    8.1207 C.ar    1  UNL1        0.1508
     11 N          12.6479   42.0272    7.8840 N.ar    1  UNL1       -0.2888
     12 N          14.8519   41.8345    7.5415 N.ar    1  UNL1       -0.2247
     13 C          13.8153   39.9994    8.8287 C.ar    1  UNL1        0.0727
     14 C          14.4331   39.8654   10.0753 C.ar    1  UNL1        0.1048
     15 C          13.8086   37.5886   10.1705 C.ar    1  UNL1        0.1392
     16 C          13.1644   38.8818    8.3001 C.ar    1  UNL1        0.1048
     17 N          14.4230   38.6696   10.7189 N.ar    1  UNL1       -0.2291
     18 N          13.1750   37.7021    8.9735 N.ar    1  UNL1       -0.2291
     19 C          13.7905   36.2927   10.9016 C.3     1  UNL1        0.0657
     20 C          12.9230   35.2942   10.1612 C.3     1  UNL1        0.0084
     21 C           6.2116   41.5557    9.1771 C.2     1  UNL1        0.2261
     22 O           6.2741   42.2223    8.1100 O.2     1  UNL1       -0.2748
     23 N           7.3970   41.2504    9.9204 N.am    1  UNL1       -0.2842
     24 H           7.2838   40.8831   10.8267 H       1  UNL1        0.1548
     25 C           4.8819   41.1098    9.6855 C.3     1  UNL1        0.0854
     26 C           3.5378   41.8214   11.6650 C.3     1  UNL1        0.0005
     27 C           4.8272   41.1678   11.2041 C.3     1  UNL1        0.0096
@<TRIPOS>BOND
     1    26    27    1
     2    27    25    1
     3    25    21    1
     4    21    23   am
     5     2     4   ar
     6     3     2    1
     7     5     6   ar
     8     5    11    1
     9     7     1   ar
    10     9    12   ar
    11    10    13    1
    12    10    11   ar
    13    14    17   ar
    14    15    18   ar
    15    19    15    1
    16    19    20    1
    17    16    13   ar
    18    23     1    1
    19    11     8   ar
    20    21    22    2
    21     1     2   ar
    22     4     5   ar
    23     6     7   ar
    24     8     9   ar
    25    10    12   ar
    26    13    14   ar
    27    15    17   ar
    28    16    18   ar
    29    23    24    1
@<TRIPOS>MOLECULE
MolPort-023-267-087 77485327 CSSS00159611192 MCULE-1191038835 PubChem-70766615 ZINC000077485327 ZINC77485327
 27 29 0 0 0
SMALL
GASTEIGER

@<TRIPOS>ATOM
      1 C           8.0285   41.7611    9.0777 C.ar    1  UNL1        0.0463
      2 C           9.0819   41.9749    9.9944 C.ar    1  UNL1       -0.0069
      3 C           9.0763   43.1125   10.9576 C.3     1  UNL1        0.0324
      4 C          10.2064   41.1448    9.9642 C.ar    1  UNL1        0.0145
      5 C          10.3134   40.1154    9.0199 C.ar    1  UNL1        0.0652
      6 C           9.2704   39.9161    8.1062 C.ar    1  UNL1        0.0188
      7 C           8.1444   40.7409    8.1287 C.ar    1  UNL1        0.0158
      8 C          11.4720   38.0247    9.6081 C.ar    1  UNL1        0.1022
      9 C          12.6865   37.4341    9.3154 C.ar    1  UNL1        0.1195
     10 C          12.6496   39.3745    8.4127 C.ar    1  UNL1        0.1508
     11 N          11.4546   39.2421    9.0351 N.ar    1  UNL1       -0.2888
     12 N          13.4208   38.2803    8.5650 N.ar    1  UNL1       -0.2247
     13 C          13.1428   40.5873    7.7283 C.ar    1  UNL1        0.0727
     14 C          12.4134   41.2073    6.7098 C.ar    1  UNL1        0.1048
     15 C          14.0440   42.9088    6.5405 C.ar    1  UNL1        0.1392
     16 C          14.3257   41.2003    8.1491 C.ar    1  UNL1        0.1048
     17 N          12.8750   42.3474    6.1343 N.ar    1  UNL1       -0.2291
     18 N          14.7555   42.3411    7.5497 N.ar    1  UNL1       -0.2291
     19 C          14.5217   44.1699    5.9116 C.3     1  UNL1        0.0657
     20 C          15.9241   44.4874    6.3918 C.3     1  UNL1        0.0084
     21 C           5.5142   42.1021    8.9385 C.2     1  UNL1        0.2261
     22 O           5.2851   40.8976    8.6492 O.2     1  UNL1       -0.2748
     23 N           6.8574   42.5871    9.0449 N.am    1  UNL1       -0.2842
     24 H           6.9863   43.5616    9.0996 H       1  UNL1        0.1548
     25 C           4.3697   43.0376    9.1393 C.3     1  UNL1        0.0854
     26 C           3.7440   42.1361   11.3815 C.3     1  UNL1        0.0005
     27 C           3.2683   42.3886    9.9629 C.3     1  UNL1        0.0096
@<TRIPOS>BOND
     1    26    27    1
     2    27    25    1
     3    25    21    1
     4    21    23   am
     5     2     4   ar
     6     3     2    1
     7     5     6   ar
     8     5    11    1
     9     7     1   ar
    10     9    12   ar
    11    10    13    1
    12    10    11   ar
    13    14    17   ar
    14    15    18   ar
    15    19    15    1
    16    19    20    1
    17    16    13   ar
    18    23     1    1
    19    11     8   ar
    20    21    22    2
    21     1     2   ar
    22     4     5   ar
    23     6     7   ar
    24     8     9   ar
    25    10    12   ar
    26    13    14   ar
    27    15    17   ar
    28    16    18   ar
    29    23    24    1
@<TRIPOS>MOLECULE
MolPort-023-267-087 77485327 CSSS00159611192 MCULE-1191038835 PubChem-70766615 ZINC000077485327 ZINC77485327
 27 29 0 0 0
SMALL
GASTEIGER

@<TRIPOS>ATOM
      1 C           9.3199   42.2869    8.3710 C.ar    1  UNL1        0.0463
      2 C           9.8548   41.8164    7.1511 C.ar    1  UNL1       -0.0069
      3 C           8.9884   41.3207    6.0441 C.3     1  UNL1        0.0324
      4 C          11.2409   41.7401    6.9855 C.ar    1  UNL1        0.0145
      5 C          12.1088   42.1033    8.0237 C.ar    1  UNL1        0.0652
      6 C          11.5716   42.5580    9.2349 C.ar    1  UNL1        0.0188
      7 C          10.1888   42.6365    9.4091 C.ar    1  UNL1        0.0158
      8 C          14.2247   42.9883    7.1299 C.ar    1  UNL1        0.1022
      9 C          15.5683   42.6889    7.2508 C.ar    1  UNL1        0.1195
     10 C          14.4535   41.2208    8.3387 C.ar    1  UNL1        0.1508
     11 N          13.5306   42.0638    7.8185 N.ar    1  UNL1       -0.2888
     12 N          15.7087   41.5833    8.0100 N.ar    1  UNL1       -0.2247
     13 C          14.1713   39.9808    9.0905 C.ar    1  UNL1        0.0727
     14 C          13.4770   38.9122    8.5162 C.ar    1  UNL1        0.1048
     15 C          13.7497   37.6397   10.4883 C.ar    1  UNL1        0.1392
     16 C          14.6748   39.8120   10.3828 C.ar    1  UNL1        0.1048
     17 N          13.2758   37.7691    9.2212 N.ar    1  UNL1       -0.2291
     18 N          14.4539   38.6535   11.0569 N.ar    1  UNL1       -0.2291
     19 C          13.5370   36.3710   11.2362 C.3     1  UNL1        0.0657
     20 C          12.4216   35.5722   10.5913 C.3     1  UNL1        0.0084
     21 C           7.1593   43.5912    8.6684 C.2     1  UNL1        0.2261
     22 O           7.7443   44.7057    8.7212 O.2     1  UNL1       -0.2748
     23 N           7.9092   42.3725    8.6106 N.am    1  UNL1       -0.2842
     24 H           7.4187   41.5297    8.7456 H       1  UNL1        0.1548
     25 C           5.6686   43.5441    8.6999 C.3     1  UNL1        0.0854
     26 C           3.6206   44.8134    8.0471 C.3     1  UNL1        0.0005
     27 C           5.0675   44.5179    7.6984 C.3     1  UNL1        0.0096
@<TRIPOS>BOND
     1    26    27    1
     2    27    25    1
     3    25    21    1
     4    21    23   am
     5     2     4   ar
     6     3     2    1
     7     5     6   ar
     8     5    11    1
     9     7     1   ar
    10     9    12   ar
    11    10    13    1
    12    10    11   ar
    13    14    17   ar
    14    15    18   ar
    15    19    15    1
    16    19    20    1
    17    16    13   ar
    18    23     1    1
    19    11     8   ar
    20    21    22    2
    21     1     2   ar
    22     4     5   ar
    23     6     7   ar
    24     8     9   ar
    25    10    12   ar
    26    13    14   ar
    27    15    17   ar
    28    16    18   ar
    29    23    24    1
@<TRIPOS>MOLECULE
MolPort-023-267-087 77485327 CSSS00159611192 MCULE-1191038835 PubChem-70766615 ZINC000077485327 ZINC77485327
 27 29 0 0 0
SMALL
GASTEIGER

@<TRIPOS>ATOM
      1 C          10.3296   40.4327    9.5400 C.ar    1  UNL1        0.0463
      2 C          10.9182   39.6576    8.5160 C.ar    1  UNL1       -0.0069
      3 C          10.1892   39.3161    7.2615 C.3     1  UNL1        0.0324
      4 C          12.1986   39.1265    8.6976 C.ar    1  UNL1        0.0145
      5 C          12.8986   39.3338    9.8934 C.ar    1  UNL1        0.0652
      6 C          12.3045   40.0936   10.9093 C.ar    1  UNL1        0.0188
      7 C          11.0260   40.6269   10.7367 C.ar    1  UNL1        0.0158
      8 C          14.5324   37.6391   10.6130 C.ar    1  UNL1        0.1022
      9 C          15.8901   37.4282   10.4663 C.ar    1  UNL1        0.1195
     10 C          15.4024   39.3087    9.5676 C.ar    1  UNL1        0.1508
     11 N          14.2326   38.8207   10.0433 N.ar    1  UNL1       -0.2888
     12 N          16.4319   38.4739    9.8094 N.ar    1  UNL1       -0.2247
     13 C          15.6024   40.6348    8.9479 C.ar    1  UNL1        0.0727
     14 C          16.8114   41.3270    9.0616 C.ar    1  UNL1        0.1048
     15 C          15.9774   43.0632    7.6931 C.ar    1  UNL1        0.1392
     16 C          14.6023   41.1960    8.1499 C.ar    1  UNL1        0.1048
     17 N          16.9760   42.5231    8.4400 N.ar    1  UNL1       -0.2291
     18 N          14.8038   42.3945    7.5429 N.ar    1  UNL1       -0.2291
     19 C          16.1853   44.3648    7.0026 C.3     1  UNL1        0.0657
     20 C          15.2945   44.4483    5.7790 C.3     1  UNL1        0.0084
     21 C           8.7212   42.3892    9.3332 C.2     1  UNL1        0.2261
     22 O           9.6107   43.2501    9.5669 O.2     1  UNL1       -0.2748
     23 N           9.0142   40.9903    9.4235 N.am    1  UNL1       -0.2842
     24 H           8.2547   40.3642    9.4041 H       1  UNL1        0.1548
     25 C           7.3400   42.8371    8.9909 C.3     1  UNL1        0.0854
     26 C           5.9419   44.0463    7.3133 C.3     1  UNL1        0.0005
     27 C           7.2688   43.3539    7.5624 C.3     1  UNL1        0.0096
@<TRIPOS>BOND
     1    26    27    1
     2    27    25    1
     3    25    21    1
     4    21    23   am
     5     2     4   ar
     6     3     2    1
     7     5     6   ar
     8     5    11    1
     9     7     1   ar
    10     9    12   ar
    11    10    13    1
    12    10    11   ar
    13    14    17   ar
    14    15    18   ar
    15    19    15    1
    16    19    20    1
    17    16    13   ar
    18    23     1    1
    19    11     8   ar
    20    21    22    2
    21     1     2   ar
    22     4     5   ar
    23     6     7   ar
    24     8     9   ar
    25    10    12   ar
    26    13    14   ar
    27    15    17   ar
    28    16    18   ar
    29    23    24    1
