@<TRIPOS>MOLECULE
MolPort-002-775-237 ChemDiv-F018-3391 MCULE-2524880567 PubChem-19591198
 28 30 0 0 0
SMALL
GASTEIGER

@<TRIPOS>ATOM
      1 C          12.8330   40.8562    9.1386 C.2     1  UNL1        0.2485
      2 O          12.1911   39.8901    9.6280 O.2     1  UNL1       -0.2727
      3 N          12.1497   42.0178    8.6546 N.am    1  UNL1       -0.2805
      4 H          12.6905   42.8267    8.5045 H       1  UNL1        0.1550
      5 C          10.0682   41.7550    7.2129 C.ar    1  UNL1        0.0935
      6 C          10.6448   41.2019    5.9568 C.3     1  UNL1        0.0553
      7 C          10.7484   42.1068    8.3697 C.ar    1  UNL1        0.0792
      8 C           9.8045   42.7045    9.1716 C.ar    1  UNL1        0.0732
      9 C          10.0343   43.2853   10.5264 C.3     1  UNL1        0.0532
     10 N           8.6230   42.6779    8.5229 N.ar    1  UNL1       -0.2247
     11 N           8.7727   42.1111    7.3347 N.ar    1  UNL1       -0.1705
     12 C           7.3502   43.1866    9.0117 C.3     1  UNL1        0.2731
     13 C           5.1525   43.1317    8.8350 C.3     1  UNL1        0.1765
     14 O           6.3035   42.4258    8.4898 O.3     1  UNL1       -0.3284
     15 C          14.3274   40.8175    9.1552 C.3     1  UNL1        0.1807
     16 C          14.8499   39.3926    9.0621 C.3     1  UNL1        0.0363
     17 C          14.9517   43.0461    6.4399 C.ar    1  UNL1        0.1693
     18 C          16.2230   42.9960    6.9797 C.ar    1  UNL1        0.0144
     19 C          16.1506   42.1282    7.9970 C.ar    1  UNL1        0.0535
     20 C          17.1437   42.3953    9.0563 C.3     1  UNL1        0.0455
     21 C          17.9664   43.5557    8.4571 C.3     1  UNL1        0.0110
     22 C          17.2647   44.0226    7.1638 C.3     1  UNL1        0.0295
     23 N          14.8897   41.6616    8.1034 N.ar    1  UNL1       -0.2484
     24 N          14.1519   42.2143    7.1485 N.ar    1  UNL1       -0.1656
     25 C          14.4401   44.0658    5.4731 C.3     1  UNL1        0.4362
     26 F          14.7726   45.3311    5.9192 F       1  UNL1       -0.1644
     27 F          13.0648   43.9660    5.3696 F       1  UNL1       -0.1644
     28 F          15.0014   43.8584    4.2264 F       1  UNL1       -0.1644
@<TRIPOS>BOND
     1    13    14    1
     2    12    14    1
     3    12    10    1
     4     5     7   ar
     5     6     5    1
     6     7     3    1
     7    15     1    1
     8    15    16    1
     9    15    23    1
    10    17    18   ar
    11    19    23   ar
    12    20    19    1
    13    20    21    1
    14    21    22    1
    15    22    18    1
    16    25    17    1
    17    25    26    1
    18    25    27    1
    19    25    28    1
    20     8    10   ar
    21     9     8    1
    22    10    11   ar
    23     3     1   am
    24    23    24   ar
    25     5    11   ar
    26     7     8   ar
    27     1     2    2
    28    17    24   ar
    29    18    19   ar
    30     3     4    1
@<TRIPOS>MOLECULE
MolPort-002-775-237 ChemDiv-F018-3391 MCULE-2524880567 PubChem-19591198
 28 30 0 0 0
SMALL
GASTEIGER

@<TRIPOS>ATOM
      1 C          13.5622   39.7887    8.7550 C.2     1  UNL1        0.2485
      2 O          13.7910   38.6124    8.3688 O.2     1  UNL1       -0.2727
      3 N          12.2200   40.2780    8.8533 N.am    1  UNL1       -0.2805
      4 H          12.0796   41.1017    9.3738 H       1  UNL1        0.1550
      5 C          10.4620   38.4605    8.5593 C.ar    1  UNL1        0.0935
      6 C          10.8911   37.4644    9.5789 C.3     1  UNL1        0.0553
      7 C          11.0635   39.6745    8.2609 C.ar    1  UNL1        0.0792
      8 C          10.3924   40.1440    7.1562 C.ar    1  UNL1        0.0732
      9 C          10.6733   41.4127    6.4233 C.3     1  UNL1        0.0532
     10 N           9.4268   39.2573    6.8418 N.ar    1  UNL1       -0.2247
     11 N           9.4641   38.2324    7.6806 N.ar    1  UNL1       -0.1705
     12 C           8.4681   39.3646    5.7523 C.3     1  UNL1        0.2731
     13 C           6.4573   39.9937    6.4046 C.3     1  UNL1        0.1765
     14 O           7.2314   38.8613    6.1576 O.3     1  UNL1       -0.3284
     15 C          14.7061   40.6412    9.2024 C.3     1  UNL1        0.1807
     16 C          15.8695   39.7978    9.6996 C.3     1  UNL1        0.0363
     17 C          14.9627   42.9658    6.5080 C.ar    1  UNL1        0.1693
     18 C          16.2523   43.0534    6.9974 C.ar    1  UNL1        0.0144
     19 C          16.3202   42.1683    8.0000 C.ar    1  UNL1        0.0535
     20 C          17.3185   42.5316    9.0251 C.3     1  UNL1        0.0455
     21 C          17.9792   43.7870    8.4170 C.3     1  UNL1        0.0110
     22 C          17.1773   44.1895    7.1609 C.3     1  UNL1        0.0295
     23 N          15.1257   41.5592    8.1460 N.ar    1  UNL1       -0.2484
     24 N          14.2919   42.0378    7.2310 N.ar    1  UNL1       -0.1656
     25 C          14.3000   43.9344    5.5813 C.3     1  UNL1        0.4362
     26 F          12.9403   43.6875    5.5526 F       1  UNL1       -0.1644
     27 F          14.8159   43.7922    4.3064 F       1  UNL1       -0.1644
     28 F          14.5206   45.2291    6.0143 F       1  UNL1       -0.1644
@<TRIPOS>BOND
     1    13    14    1
     2    12    14    1
     3    12    10    1
     4     5     7   ar
     5     6     5    1
     6     7     3    1
     7    15     1    1
     8    15    16    1
     9    15    23    1
    10    17    18   ar
    11    19    23   ar
    12    20    19    1
    13    20    21    1
    14    21    22    1
    15    22    18    1
    16    25    17    1
    17    25    26    1
    18    25    27    1
    19    25    28    1
    20     8    10   ar
    21     9     8    1
    22    10    11   ar
    23     3     1   am
    24    23    24   ar
    25     5    11   ar
    26     7     8   ar
    27     1     2    2
    28    17    24   ar
    29    18    19   ar
    30     3     4    1
@<TRIPOS>MOLECULE
MolPort-002-775-237 ChemDiv-F018-3391 MCULE-2524880567 PubChem-19591198
 28 30 0 0 0
SMALL
GASTEIGER

@<TRIPOS>ATOM
      1 C          11.0433   41.3341    7.9242 C.2     1  UNL1        0.2485
      2 O          11.0428   41.7785    6.7462 O.2     1  UNL1       -0.2727
      3 N           9.8179   41.1852    8.6500 N.am    1  UNL1       -0.2805
      4 H           9.8407   40.6247    9.4590 H       1  UNL1        0.1550
      5 C           7.5994   41.3307    7.4102 C.ar    1  UNL1        0.0935
      6 C           7.6481   40.1034    6.5693 C.3     1  UNL1        0.0553
      7 C           8.5617   41.7801    8.3028 C.ar    1  UNL1        0.0792
      8 C           8.1240   43.0199    8.7059 C.ar    1  UNL1        0.0732
      9 C           8.8202   43.9392    9.6526 C.3     1  UNL1        0.0532
     10 N           6.9477   43.2699    8.0968 N.ar    1  UNL1       -0.2247
     11 N           6.6242   42.2571    7.3062 N.ar    1  UNL1       -0.1705
     12 C           6.1239   44.4596    8.2499 C.3     1  UNL1        0.2731
     13 C           3.9289   44.6377    8.1287 C.3     1  UNL1        0.1765
     14 O           4.9511   44.1396    8.9346 O.3     1  UNL1       -0.3284
     15 C          12.3320   40.8724    8.5252 C.3     1  UNL1        0.1807
     16 C          12.4305   39.3551    8.5367 C.3     1  UNL1        0.0363
     17 C          14.6092   42.8917    6.6634 C.ar    1  UNL1        0.1693
     18 C          15.5193   42.1165    7.3568 C.ar    1  UNL1        0.0144
     19 C          14.7883   41.2504    8.0700 C.ar    1  UNL1        0.0535
     20 C          15.4661   40.7986    9.3013 C.3     1  UNL1        0.0455
     21 C          16.8539   41.4633    9.1810 C.3     1  UNL1        0.0110
     22 C          16.8204   42.4276    7.9760 C.3     1  UNL1        0.0295
     23 N          13.4773   41.4762    7.8479 N.ar    1  UNL1       -0.2484
     24 N          13.3606   42.4754    6.9821 N.ar    1  UNL1       -0.1656
     25 C          14.9001   44.1737    5.9505 C.3     1  UNL1        0.4362
     26 F          15.6085   43.9070    4.7939 F       1  UNL1       -0.1644
     27 F          15.6505   45.0030    6.7635 F       1  UNL1       -0.1644
     28 F          13.7174   44.8123    5.6252 F       1  UNL1       -0.1644
@<TRIPOS>BOND
     1    13    14    1
     2    12    14    1
     3    12    10    1
     4     5     7   ar
     5     6     5    1
     6     7     3    1
     7    15     1    1
     8    15    16    1
     9    15    23    1
    10    17    18   ar
    11    19    23   ar
    12    20    19    1
    13    20    21    1
    14    21    22    1
    15    22    18    1
    16    25    17    1
    17    25    26    1
    18    25    27    1
    19    25    28    1
    20     8    10   ar
    21     9     8    1
    22    10    11   ar
    23     3     1   am
    24    23    24   ar
    25     5    11   ar
    26     7     8   ar
    27     1     2    2
    28    17    24   ar
    29    18    19   ar
    30     3     4    1
@<TRIPOS>MOLECULE
MolPort-002-775-237 ChemDiv-F018-3391 MCULE-2524880567 PubChem-19591198
 28 30 0 0 0
SMALL
GASTEIGER

@<TRIPOS>ATOM
      1 C          12.1937   40.3222    8.6300 C.2     1  UNL1        0.2485
      2 O          12.1453   41.0814    9.6331 O.2     1  UNL1       -0.2727
      3 N          13.3719   40.2568    7.8187 N.am    1  UNL1       -0.2805
      4 H          13.4503   39.4936    7.2018 H       1  UNL1        0.1550
      5 C          15.5850   41.2277    8.6186 C.ar    1  UNL1        0.0935
      6 C          15.9646   40.2621    9.6860 C.3     1  UNL1        0.0553
      7 C          14.4468   41.2040    7.8257 C.ar    1  UNL1        0.0792
      8 C          14.4824   42.3801    7.1139 C.ar    1  UNL1        0.0732
      9 C          13.4641   42.8499    6.1299 C.3     1  UNL1        0.0532
     10 N          15.6034   43.0459    7.4565 N.ar    1  UNL1       -0.2247
     11 N          16.2745   42.3604    8.3704 N.ar    1  UNL1       -0.1705
     12 C          16.0485   44.3283    6.9322 C.3     1  UNL1        0.2731
     13 C          17.7408   43.8438    5.6034 C.3     1  UNL1        0.1765
     14 O          16.3927   44.1968    5.5864 O.3     1  UNL1       -0.3284
     15 C          11.0383   39.4160    8.3490 C.3     1  UNL1        0.1807
     16 C          11.0209   38.2247    9.2937 C.3     1  UNL1        0.0363
     17 C           8.4045   41.8083    8.6133 C.ar    1  UNL1        0.1693
     18 C           7.7203   40.7992    7.9622 C.ar    1  UNL1        0.0144
     19 C           8.5903   39.7879    7.8465 C.ar    1  UNL1        0.0535
     20 C           8.3154   38.9191    6.6849 C.3     1  UNL1        0.0455
     21 C           7.0013   39.5093    6.1306 C.3     1  UNL1        0.0110
     22 C           6.7038   40.8172    6.8948 C.3     1  UNL1        0.0295
     23 N           9.7729   40.1457    8.3872 N.ar    1  UNL1       -0.2484
     24 N           9.6640   41.3791    8.8650 N.ar    1  UNL1       -0.1656
     25 C           7.9745   43.2356    8.7321 C.3     1  UNL1        0.4362
     26 F           7.7709   43.7618    7.4703 F       1  UNL1       -0.1644
     27 F           8.9528   43.9682    9.3789 F       1  UNL1       -0.1644
     28 F           6.7992   43.3163    9.4563 F       1  UNL1       -0.1644
@<TRIPOS>BOND
     1    13    14    1
     2    12    14    1
     3    12    10    1
     4     5     7   ar
     5     6     5    1
     6     7     3    1
     7    15     1    1
     8    15    16    1
     9    15    23    1
    10    17    18   ar
    11    19    23   ar
    12    20    19    1
    13    20    21    1
    14    21    22    1
    15    22    18    1
    16    25    17    1
    17    25    26    1
    18    25    27    1
    19    25    28    1
    20     8    10   ar
    21     9     8    1
    22    10    11   ar
    23     3     1   am
    24    23    24   ar
    25     5    11   ar
    26     7     8   ar
    27     1     2    2
    28    17    24   ar
    29    18    19   ar
    30     3     4    1
@<TRIPOS>MOLECULE
MolPort-002-775-237 ChemDiv-F018-3391 MCULE-2524880567 PubChem-19591198
 28 30 0 0 0
SMALL
GASTEIGER

@<TRIPOS>ATOM
      1 C          11.5141   41.6686    8.3252 C.2     1  UNL1        0.2485
      2 O          11.6948   42.7830    8.8824 O.2     1  UNL1       -0.2727
      3 N          10.2522   40.9986    8.4224 N.am    1  UNL1       -0.2805
      4 H          10.0842   40.2639    7.7891 H       1  UNL1        0.1550
      5 C           9.2782   41.3755   10.7439 C.ar    1  UNL1        0.0935
      6 C          10.4665   41.1345   11.6074 C.3     1  UNL1        0.0553
      7 C           9.2126   41.3033    9.3601 C.ar    1  UNL1        0.0792
      8 C           7.8797   41.4538    9.0570 C.ar    1  UNL1        0.0732
      9 C           7.2738   41.4266    7.6939 C.3     1  UNL1        0.0532
     10 N           7.2034   41.6323   10.2094 N.ar    1  UNL1       -0.2247
     11 N           8.0390   41.5808   11.2362 N.ar    1  UNL1       -0.1705
     12 C           5.7715   41.8481   10.3536 C.3     1  UNL1        0.2731
     13 C           4.2705   40.6618   11.4510 C.3     1  UNL1        0.1765
     14 O           5.3669   41.5006   11.6429 O.3     1  UNL1       -0.3284
     15 C          12.6046   41.0950    7.4786 C.3     1  UNL1        0.1807
     16 C          12.1769   40.9734    6.0245 C.3     1  UNL1        0.0363
     17 C          15.8800   42.3398    8.1510 C.ar    1  UNL1        0.1693
     18 C          15.4771   43.2749    7.2163 C.ar    1  UNL1        0.0144
     19 C          14.2121   42.9595    6.9105 C.ar    1  UNL1        0.0535
     20 C          13.8248   43.3793    5.5491 C.3     1  UNL1        0.0455
     21 C          15.0740   44.1484    5.0693 C.3     1  UNL1        0.0110
     22 C          16.1899   43.9514    6.1176 C.3     1  UNL1        0.0295
     23 N          13.8373   41.8685    7.6092 N.ar    1  UNL1       -0.2484
     24 N          14.8516   41.4880    8.3761 N.ar    1  UNL1       -0.1656
     25 C          17.2837   42.0829    8.5978 C.3     1  UNL1        0.4362
     26 F          18.0882   41.8765    7.4929 F       1  UNL1       -0.1644
     27 F          17.3214   40.9607    9.4049 F       1  UNL1       -0.1644
     28 F          17.7580   43.1674    9.3127 F       1  UNL1       -0.1644
@<TRIPOS>BOND
     1    13    14    1
     2    12    14    1
     3    12    10    1
     4     5     7   ar
     5     6     5    1
     6     7     3    1
     7    15     1    1
     8    15    16    1
     9    15    23    1
    10    17    18   ar
    11    19    23   ar
    12    20    19    1
    13    20    21    1
    14    21    22    1
    15    22    18    1
    16    25    17    1
    17    25    26    1
    18    25    27    1
    19    25    28    1
    20     8    10   ar
    21     9     8    1
    22    10    11   ar
    23     3     1   am
    24    23    24   ar
    25     5    11   ar
    26     7     8   ar
    27     1     2    2
    28    17    24   ar
    29    18    19   ar
    30     3     4    1
@<TRIPOS>MOLECULE
MolPort-002-775-237 ChemDiv-F018-3391 MCULE-2524880567 PubChem-19591198
 28 30 0 0 0
SMALL
GASTEIGER

@<TRIPOS>ATOM
      1 C          10.9758   40.8179    6.3931 C.2     1  UNL1        0.2485
      2 O          11.5377   39.7704    5.9783 O.2     1  UNL1       -0.2727
      3 N          11.7512   41.9322    6.8488 N.am    1  UNL1       -0.2805
      4 H          11.2871   42.7960    6.9368 H       1  UNL1        0.1550
      5 C          13.7902   41.1412    8.1514 C.ar    1  UNL1        0.0935
      6 C          13.1796   40.1651    9.0949 C.3     1  UNL1        0.0553
      7 C          13.1428   41.9010    7.1879 C.ar    1  UNL1        0.0792
      8 C          14.1068   42.7479    6.6934 C.ar    1  UNL1        0.0732
      9 C          13.9142   43.7912    5.6444 C.3     1  UNL1        0.0532
     10 N          15.2686   42.4757    7.3208 N.ar    1  UNL1       -0.2247
     11 N          15.0868   41.5095    8.2089 N.ar    1  UNL1       -0.1705
     12 C          16.5525   43.1220    7.0936 C.3     1  UNL1        0.2731
     13 C          18.1988   44.0245    8.2510 C.3     1  UNL1        0.1765
     14 O          17.4012   42.8841    8.1752 O.3     1  UNL1       -0.3284
     15 C           9.4864   40.9221    6.3153 C.3     1  UNL1        0.1807
     16 C           8.8228   39.5637    6.4776 C.3     1  UNL1        0.0363
     17 C           7.6703   43.3828    8.1528 C.ar    1  UNL1        0.1693
     18 C           8.4612   42.8868    9.1720 C.ar    1  UNL1        0.0144
     19 C           9.2566   41.9731    8.6013 C.ar    1  UNL1        0.0535
     20 C           9.6895   40.9177    9.5385 C.3     1  UNL1        0.0455
     21 C           9.1036   41.4033   10.8813 C.3     1  UNL1        0.0110
     22 C           8.1918   42.6156   10.5957 C.3     1  UNL1        0.0295
     23 N           8.9728   41.8862    7.2857 N.ar    1  UNL1       -0.2484
     24 N           8.0071   42.7517    7.0029 N.ar    1  UNL1       -0.1656
     25 C           6.4372   44.2133    8.3135 C.3     1  UNL1        0.4362
     26 F           6.7480   45.3708    9.0020 F       1  UNL1       -0.1644
     27 F           5.4830   43.5048    9.0204 F       1  UNL1       -0.1644
     28 F           5.9246   44.5432    7.0722 F       1  UNL1       -0.1644
@<TRIPOS>BOND
     1    13    14    1
     2    12    14    1
     3    12    10    1
     4     5     7   ar
     5     6     5    1
     6     7     3    1
     7    15     1    1
     8    15    16    1
     9    15    23    1
    10    17    18   ar
    11    19    23   ar
    12    20    19    1
    13    20    21    1
    14    21    22    1
    15    22    18    1
    16    25    17    1
    17    25    26    1
    18    25    27    1
    19    25    28    1
    20     8    10   ar
    21     9     8    1
    22    10    11   ar
    23     3     1   am
    24    23    24   ar
    25     5    11   ar
    26     7     8   ar
    27     1     2    2
    28    17    24   ar
    29    18    19   ar
    30     3     4    1
@<TRIPOS>MOLECULE
MolPort-002-775-237 ChemDiv-F018-3391 MCULE-2524880567 PubChem-19591198
 28 30 0 0 0
SMALL
GASTEIGER

@<TRIPOS>ATOM
      1 C           8.4521   41.6696    8.6838 C.2     1  UNL1        0.2485
      2 O           9.1790   42.4541    8.0194 O.2     1  UNL1       -0.2727
      3 N           8.2774   40.3093    8.2720 N.am    1  UNL1       -0.2805
      4 H           7.9036   39.6843    8.9345 H       1  UNL1        0.1550
      5 C           7.7461   39.4260    5.9444 C.ar    1  UNL1        0.0935
      6 C           6.2597   39.5045    5.9290 C.3     1  UNL1        0.0553
      7 C           8.5985   39.7776    6.9809 C.ar    1  UNL1        0.0792
      8 C           9.8478   39.3782    6.5675 C.ar    1  UNL1        0.0732
      9 C          11.1186   39.5088    7.3382 C.3     1  UNL1        0.0532
     10 N           9.7325   38.8428    5.3356 N.ar    1  UNL1       -0.2247
     11 N           8.4646   38.8615    4.9518 N.ar    1  UNL1       -0.1705
     12 C          10.8088   38.3085    4.5148 C.3     1  UNL1        0.2731
     13 C           9.8981   38.7054    2.5457 C.3     1  UNL1        0.1765
     14 O          10.2778   37.6676    3.3949 O.3     1  UNL1       -0.3284
     15 C           7.8474   42.1493    9.9642 C.3     1  UNL1        0.1807
     16 C           8.4262   43.4904   10.3866 C.3     1  UNL1        0.0363
     17 C           4.3197   42.0500   10.4884 C.ar    1  UNL1        0.1693
     18 C           4.3475   42.7879    9.3200 C.ar    1  UNL1        0.0144
     19 C           5.6369   42.8554    8.9649 C.ar    1  UNL1        0.0535
     20 C           5.9566   44.0613    8.1755 C.3     1  UNL1        0.0455
     21 C           4.5702   44.7124    7.9850 C.3     1  UNL1        0.0110
     22 C           3.5548   43.9401    8.8541 C.3     1  UNL1        0.0295
     23 N           6.3901   42.2021    9.8732 N.ar    1  UNL1       -0.2484
     24 N           5.5891   41.7005   10.8050 N.ar    1  UNL1       -0.1656
     25 C           3.1654   41.9286   11.4313 C.3     1  UNL1        0.4362
     26 F           3.3824   40.8679   12.2907 F       1  UNL1       -0.1644
     27 F           2.0000   41.7081   10.7205 F       1  UNL1       -0.1644
     28 F           3.0310   43.0924   12.1661 F       1  UNL1       -0.1644
@<TRIPOS>BOND
     1    13    14    1
     2    12    14    1
     3    12    10    1
     4     5     7   ar
     5     6     5    1
     6     7     3    1
     7    15     1    1
     8    15    16    1
     9    15    23    1
    10    17    18   ar
    11    19    23   ar
    12    20    19    1
    13    20    21    1
    14    21    22    1
    15    22    18    1
    16    25    17    1
    17    25    26    1
    18    25    27    1
    19    25    28    1
    20     8    10   ar
    21     9     8    1
    22    10    11   ar
    23     3     1   am
    24    23    24   ar
    25     5    11   ar
    26     7     8   ar
    27     1     2    2
    28    17    24   ar
    29    18    19   ar
    30     3     4    1
@<TRIPOS>MOLECULE
MolPort-002-775-237 ChemDiv-F018-3391 MCULE-2524880567 PubChem-19591198
 28 30 0 0 0
SMALL
GASTEIGER

@<TRIPOS>ATOM
      1 C          11.2331   41.0324    6.5075 C.2     1  UNL1        0.2485
      2 O          11.6236   39.8652    6.2425 O.2     1  UNL1       -0.2727
      3 N          12.1375   42.0000    7.0520 N.am    1  UNL1       -0.2805
      4 H          11.8577   42.9434    7.0207 H       1  UNL1        0.1550
      5 C          13.7111   40.9438    8.7514 C.ar    1  UNL1        0.0935
      6 C          12.7543   40.2197    9.6324 C.3     1  UNL1        0.0553
      7 C          13.4136   41.7164    7.6382 C.ar    1  UNL1        0.0792
      8 C          14.6088   42.2884    7.2703 C.ar    1  UNL1        0.0732
      9 C          14.8255   43.2335    6.1364 C.3     1  UNL1        0.0532
     10 N          15.5637   41.8483    8.1140 N.ar    1  UNL1       -0.2247
     11 N          15.0303   41.0390    9.0174 N.ar    1  UNL1       -0.1705
     12 C          16.9786   42.1867    8.0797 C.3     1  UNL1        0.2731
     13 C          18.0754   44.0659    7.7189 C.3     1  UNL1        0.1765
     14 O          17.1724   43.4682    8.5964 O.3     1  UNL1       -0.3284
     15 C           9.8341   41.4267    6.1576 C.3     1  UNL1        0.1807
     16 C           9.0724   40.2750    5.5209 C.3     1  UNL1        0.0363
     17 C           8.8255   42.7759    9.3027 C.ar    1  UNL1        0.1693
     18 C           7.6600   42.9852    8.5899 C.ar    1  UNL1        0.0144
     19 C           7.8779   42.4605    7.3773 C.ar    1  UNL1        0.0535
     20 C           7.0805   43.1068    6.3162 C.3     1  UNL1        0.0455
     21 C           6.1993   44.0913    7.1140 C.3     1  UNL1        0.0110
     22 C           6.6890   44.0942    8.5780 C.3     1  UNL1        0.0295
     23 N           9.1270   41.9550    7.3220 N.ar    1  UNL1       -0.2484
     24 N           9.7104   42.1385    8.4999 N.ar    1  UNL1       -0.1656
     25 C           9.1956   43.4168   10.6022 C.3     1  UNL1        0.4362
     26 F           8.9018   44.7664   10.5502 F       1  UNL1       -0.1644
     27 F          10.5483   43.2536   10.8375 F       1  UNL1       -0.1644
     28 F           8.4855   42.8337   11.6357 F       1  UNL1       -0.1644
@<TRIPOS>BOND
     1    13    14    1
     2    12    14    1
     3    12    10    1
     4     5     7   ar
     5     6     5    1
     6     7     3    1
     7    15     1    1
     8    15    16    1
     9    15    23    1
    10    17    18   ar
    11    19    23   ar
    12    20    19    1
    13    20    21    1
    14    21    22    1
    15    22    18    1
    16    25    17    1
    17    25    26    1
    18    25    27    1
    19    25    28    1
    20     8    10   ar
    21     9     8    1
    22    10    11   ar
    23     3     1   am
    24    23    24   ar
    25     5    11   ar
    26     7     8   ar
    27     1     2    2
    28    17    24   ar
    29    18    19   ar
    30     3     4    1
@<TRIPOS>MOLECULE
MolPort-002-775-237 ChemDiv-F018-3391 MCULE-2524880567 PubChem-19591198
 28 30 0 0 0
SMALL
GASTEIGER

@<TRIPOS>ATOM
      1 C           9.1260   41.9208   10.0143 C.2     1  UNL1        0.2485
      2 O           8.9844   41.3182    8.9180 O.2     1  UNL1       -0.2727
      3 N           8.0000   42.5064   10.6775 N.am    1  UNL1       -0.2805
      4 H           8.1147   42.7528   11.6237 H       1  UNL1        0.1550
      5 C           5.5312   42.0688   10.2374 C.ar    1  UNL1        0.0935
      6 C           5.2947   40.8497   11.0582 C.3     1  UNL1        0.0553
      7 C           6.7213   42.7654   10.0855 C.ar    1  UNL1        0.0792
      8 C           6.4629   43.7076    9.1177 C.ar    1  UNL1        0.0732
      9 C           7.4313   44.7013    8.5694 C.3     1  UNL1        0.0532
     10 N           5.1741   43.5833    8.7423 N.ar    1  UNL1       -0.2247
     11 N           4.6031   42.5910    9.4091 N.ar    1  UNL1       -0.1705
     12 C           4.4735   44.3907    7.7550 C.3     1  UNL1        0.2731
     13 C           2.5337   45.3423    7.3120 C.3     1  UNL1        0.1765
     14 O           3.4094   45.0610    8.3592 O.3     1  UNL1       -0.3284
     15 C          10.4716   41.9361   10.6656 C.3     1  UNL1        0.1807
     16 C          10.4991   41.0628   11.9101 C.3     1  UNL1        0.0363
     17 C          12.9180   41.7209    8.0776 C.ar    1  UNL1        0.1693
     18 C          13.3114   40.6390    8.8423 C.ar    1  UNL1        0.0144
     19 C          12.4240   40.5603    9.8421 C.ar    1  UNL1        0.0535
     20 C          12.9806   39.9416   11.0615 C.3     1  UNL1        0.0455
     21 C          14.3936   39.5194   10.6061 C.3     1  UNL1        0.0110
     22 C          14.6384   40.1053    9.1990 C.3     1  UNL1        0.0295
     23 N          11.5197   41.5537    9.7222 N.ar    1  UNL1       -0.2484
     24 N          11.8122   42.2640    8.6399 N.ar    1  UNL1       -0.1656
     25 C          13.7279   42.3972    7.0179 C.3     1  UNL1        0.4362
     26 F          13.6755   43.7662    7.2016 F       1  UNL1       -0.1644
     27 F          13.2217   42.0853    5.7696 F       1  UNL1       -0.1644
     28 F          15.0434   41.9765    7.0880 F       1  UNL1       -0.1644
@<TRIPOS>BOND
     1    13    14    1
     2    12    14    1
     3    12    10    1
     4     5     7   ar
     5     6     5    1
     6     7     3    1
     7    15     1    1
     8    15    16    1
     9    15    23    1
    10    17    18   ar
    11    19    23   ar
    12    20    19    1
    13    20    21    1
    14    21    22    1
    15    22    18    1
    16    25    17    1
    17    25    26    1
    18    25    27    1
    19    25    28    1
    20     8    10   ar
    21     9     8    1
    22    10    11   ar
    23     3     1   am
    24    23    24   ar
    25     5    11   ar
    26     7     8   ar
    27     1     2    2
    28    17    24   ar
    29    18    19   ar
    30     3     4    1
@<TRIPOS>MOLECULE
MolPort-002-775-237 ChemDiv-F018-3391 MCULE-2524880567 PubChem-19591198
 28 30 0 0 0
SMALL
GASTEIGER

@<TRIPOS>ATOM
      1 C          11.2924   41.4015    8.8847 C.2     1  UNL1        0.2485
      2 O          11.4578   42.6121    8.5810 O.2     1  UNL1       -0.2727
      3 N           9.9762   40.8632    9.0534 N.am    1  UNL1       -0.2805
      4 H           9.8892   39.8825    9.0552 H       1  UNL1        0.1550
      5 C           8.0446   41.8647   10.3748 C.ar    1  UNL1        0.0935
      6 C           8.3317   41.3633   11.7467 C.3     1  UNL1        0.0553
      7 C           8.7748   41.6258    9.2196 C.ar    1  UNL1        0.0792
      8 C           8.0243   42.1694    8.2036 C.ar    1  UNL1        0.0732
      9 C           8.3611   42.1562    6.7502 C.3     1  UNL1        0.0532
     10 N           6.9207   42.7230    8.7449 N.ar    1  UNL1       -0.2247
     11 N           6.9203   42.5391   10.0570 N.ar    1  UNL1       -0.1705
     12 C           5.8606   43.4231    8.0352 C.3     1  UNL1        0.2731
     13 C           3.8211   43.8258    8.7717 C.3     1  UNL1        0.1765
     14 O           5.1468   44.2284    8.9233 O.3     1  UNL1       -0.3284
     15 C          12.4862   40.5060    8.9744 C.3     1  UNL1        0.1807
     16 C          12.1891   39.1225    8.4181 C.3     1  UNL1        0.0363
     17 C          14.8133   42.5311    7.1819 C.ar    1  UNL1        0.1693
     18 C          15.7041   41.7198    7.8590 C.ar    1  UNL1        0.0144
     19 C          14.9521   40.8488    8.5439 C.ar    1  UNL1        0.0535
     20 C          15.6134   40.3505    9.7662 C.3     1  UNL1        0.0455
     21 C          17.0144   40.9914    9.6723 C.3     1  UNL1        0.0110
     22 C          17.0069   41.9887    8.4940 C.3     1  UNL1        0.0295
     23 N          13.6471   41.1059    8.3206 N.ar    1  UNL1       -0.2484
     24 N          13.5550   42.1304    7.4818 N.ar    1  UNL1       -0.1656
     25 C          15.1332   43.8262    6.5061 C.3     1  UNL1        0.4362
     26 F          15.8202   44.6454    7.3821 F       1  UNL1       -0.1644
     27 F          13.9641   44.4538    6.1170 F       1  UNL1       -0.1644
     28 F          15.9137   43.5956    5.3881 F       1  UNL1       -0.1644
@<TRIPOS>BOND
     1    13    14    1
     2    12    14    1
     3    12    10    1
     4     5     7   ar
     5     6     5    1
     6     7     3    1
     7    15     1    1
     8    15    16    1
     9    15    23    1
    10    17    18   ar
    11    19    23   ar
    12    20    19    1
    13    20    21    1
    14    21    22    1
    15    22    18    1
    16    25    17    1
    17    25    26    1
    18    25    27    1
    19    25    28    1
    20     8    10   ar
    21     9     8    1
    22    10    11   ar
    23     3     1   am
    24    23    24   ar
    25     5    11   ar
    26     7     8   ar
    27     1     2    2
    28    17    24   ar
    29    18    19   ar
    30     3     4    1
