@<TRIPOS>MOLECULE
MolPort-046-971-918 MCULE-4054959356
 28 31 0 0 0
SMALL
GASTEIGER

@<TRIPOS>ATOM
      1 C          12.2562   41.9711    6.8043 C.ar    1  UNL1        0.1361
      2 C          12.8745   41.0508    7.6501 C.ar    1  UNL1        0.0492
      3 C          12.0813   40.3092    8.5253 C.ar    1  UNL1        0.0641
      4 C          10.1458   41.3962    7.7100 C.ar    1  UNL1        0.1406
      5 C           8.6722   41.5841    7.7413 C.3     1  UNL1        0.0737
      6 N          10.7333   40.4958    8.5401 N.ar    1  UNL1       -0.2349
      7 N          10.9048   42.1252    6.8509 N.ar    1  UNL1       -0.2159
      8 C          12.7225   39.3208    9.4412 C.3     1  UNL1        0.0564
      9 C          13.1758   39.9949   10.7398 C.3     1  UNL1        0.0087
     10 C          14.2574   39.1962   11.4719 C.3     1  UNL1        0.0178
     11 C          14.2514   37.7349   11.0304 C.3     1  UNL1        0.0724
     12 C          13.8927   38.6119    8.7489 C.3     1  UNL1        0.0783
     13 N          14.5636   37.6081    9.5997 N.3     1  UNL1       -0.2673
     14 C          14.0899   36.2974    9.1827 C.3     1  UNL1        0.1205
     15 C          12.8835   35.9121    9.9696 C.ar    1  UNL1        0.0960
     16 C          11.7119   36.6352   10.0312 C.ar    1  UNL1        0.0378
     17 C          10.9192   35.8804   10.8799 C.ar    1  UNL1        0.0921
     18 N          11.6034   34.7900   11.2800 N.ar    1  UNL1       -0.2746
     19 N          12.8028   34.8075   10.7266 N.ar    1  UNL1       -0.1756
     20 H          11.2639   34.0930   11.8867 H       1  UNL1        0.1890
     21 N          13.0592   42.7382    5.9010 N.pl3   1  UNL1       -0.2781
     22 H          12.7161   42.8633    4.9868 H       1  UNL1        0.1555
     23 C          14.3195   43.3382    6.2170 C.ar    1  UNL1        0.1642
     24 C          16.3404   44.7456    6.3702 C.ar    1  UNL1        0.0528
     25 C          16.2919   43.6444    7.2248 C.ar    1  UNL1        0.0678
     26 C          17.3909   43.3314    8.1750 C.3     1  UNL1        0.0527
     27 S          14.9086   44.7209    5.4801 S.2     1  UNL1       -0.0512
     28 N          15.1790   42.8669    7.1426 N.ar    1  UNL1       -0.2283
@<TRIPOS>BOND
     1    23    27   ar
     2    23    21    1
     3    24    27   ar
     4    25    28   ar
     5    26    25    1
     6     1     7   ar
     7     2     3   ar
     8     8     3    1
     9     8     9    1
    10     9    10    1
    11    10    11    1
    12    11    13    1
    13    14    13    1
    14    14    15    1
    15    15    16   ar
    16    17    18   ar
    17    12    13    1
    18    12     8    1
    19     4     6   ar
    20     5     4    1
    21    21     1    1
    22    18    19   ar
    23    23    28   ar
    24    24    25   ar
    25     1     2   ar
    26     3     6   ar
    27    15    19   ar
    28    16    17   ar
    29     4     7   ar
    30    21    22    1
    31    18    20    1
@<TRIPOS>MOLECULE
MolPort-046-971-918 MCULE-4054959356
 28 31 0 0 0
SMALL
GASTEIGER

@<TRIPOS>ATOM
      1 C          12.1589   41.6586    6.8510 C.ar    1  UNL1        0.1361
      2 C          12.7728   40.7717    7.7349 C.ar    1  UNL1        0.0492
      3 C          11.9755   40.0678    8.6371 C.ar    1  UNL1        0.0641
      4 C          10.0448   41.1256    7.7736 C.ar    1  UNL1        0.1406
      5 C           8.5715   41.3182    7.7935 C.3     1  UNL1        0.0737
      6 N          10.6280   40.2581    8.6408 N.ar    1  UNL1       -0.2349
      7 N          10.8078   41.8177    6.8879 N.ar    1  UNL1       -0.2159
      8 C          12.6120   39.1156    9.5937 C.3     1  UNL1        0.0564
      9 C          12.8198   39.7737   10.9612 C.3     1  UNL1        0.0087
     10 C          13.8904   39.0683   11.7980 C.3     1  UNL1        0.0178
     11 C          14.1112   37.6385   11.3109 C.3     1  UNL1        0.0724
     12 C          13.9337   38.5774    9.0328 C.3     1  UNL1        0.0783
     13 N          14.6091   37.6164    9.9281 N.3     1  UNL1       -0.2673
     14 C          14.3483   36.2820    9.4108 C.3     1  UNL1        0.1205
     15 C          15.5209   35.7950    8.6293 C.ar    1  UNL1        0.0960
     16 C          15.7070   34.4979    8.2026 C.ar    1  UNL1        0.0378
     17 C          16.9227   34.5542    7.5414 C.ar    1  UNL1        0.0921
     18 N          17.4018   35.8132    7.5914 N.ar    1  UNL1       -0.2746
     19 N          16.5486   36.5722    8.2557 N.ar    1  UNL1       -0.1756
     20 H          18.2506   36.1180    7.1965 H       1  UNL1        0.1890
     21 N          12.9660   42.3868    5.9198 N.pl3   1  UNL1       -0.2781
     22 H          12.6506   42.4327    4.9883 H       1  UNL1        0.1555
     23 C          14.1936   43.0537    6.2307 C.ar    1  UNL1        0.1642
     24 C          16.1065   44.6001    6.4252 C.ar    1  UNL1        0.0528
     25 C          16.1943   43.4180    7.1603 C.ar    1  UNL1        0.0678
     26 C          17.3696   43.1024    8.0133 C.3     1  UNL1        0.0527
     27 S          14.6294   44.5474    5.6137 S.2     1  UNL1       -0.0512
     28 N          15.1412   42.5639    7.0552 N.ar    1  UNL1       -0.2283
@<TRIPOS>BOND
     1    23    27   ar
     2    23    21    1
     3    24    27   ar
     4    25    28   ar
     5    26    25    1
     6     1     7   ar
     7     2     3   ar
     8     8     3    1
     9     8     9    1
    10     9    10    1
    11    10    11    1
    12    11    13    1
    13    14    13    1
    14    14    15    1
    15    15    16   ar
    16    17    18   ar
    17    12    13    1
    18    12     8    1
    19     4     6   ar
    20     5     4    1
    21    21     1    1
    22    18    19   ar
    23    23    28   ar
    24    24    25   ar
    25     1     2   ar
    26     3     6   ar
    27    15    19   ar
    28    16    17   ar
    29     4     7   ar
    30    21    22    1
    31    18    20    1
@<TRIPOS>MOLECULE
MolPort-046-971-918 MCULE-4054959356
 28 31 0 0 0
SMALL
GASTEIGER

@<TRIPOS>ATOM
      1 C          11.8163   41.3622    6.9457 C.ar    1  UNL1        0.1361
      2 C          12.4663   40.2393    7.4570 C.ar    1  UNL1        0.0492
      3 C          11.7521   39.3716    8.2827 C.ar    1  UNL1        0.0641
      4 C           9.8295   40.7317    8.0680 C.ar    1  UNL1        0.1406
      5 C           8.4054   40.9993    8.3974 C.3     1  UNL1        0.0737
      6 N          10.4487   39.6337    8.5737 N.ar    1  UNL1       -0.2349
      7 N          10.5114   41.5858    7.2611 N.ar    1  UNL1       -0.2159
      8 C          12.4289   38.1654    8.8430 C.3     1  UNL1        0.0564
      9 C          11.4344   37.2896    9.6112 C.3     1  UNL1        0.0087
     10 C          12.1217   36.3531   10.6085 C.3     1  UNL1        0.0178
     11 C          13.5901   36.1488   10.2442 C.3     1  UNL1        0.0724
     12 C          13.6136   38.5651    9.7306 C.3     1  UNL1        0.0783
     13 N          14.3367   37.4133   10.3068 N.3     1  UNL1       -0.2673
     14 C          15.5477   37.2234    9.5235 C.3     1  UNL1        0.1205
     15 C          16.6704   38.0070   10.1140 C.ar    1  UNL1        0.0960
     16 C          17.9892   37.6079   10.1400 C.ar    1  UNL1        0.0378
     17 C          18.6232   38.6546   10.7886 C.ar    1  UNL1        0.0921
     18 N          17.7145   39.5953   11.1150 N.ar    1  UNL1       -0.2746
     19 N          16.5218   39.2020   10.7053 N.ar    1  UNL1       -0.1756
     20 H          17.9085   40.4394   11.5832 H       1  UNL1        0.1890
     21 N          12.5382   42.2604    6.0965 N.pl3   1  UNL1       -0.2781
     22 H          12.1104   42.5232    5.2497 H       1  UNL1        0.1555
     23 C          13.8305   42.8080    6.3767 C.ar    1  UNL1        0.1642
     24 C          15.8909   44.1591    6.5108 C.ar    1  UNL1        0.0528
     25 C          15.8703   42.9919    7.2741 C.ar    1  UNL1        0.0678
     26 C          17.0199   42.5803    8.1211 C.3     1  UNL1        0.0527
     27 S          14.4048   44.2356    5.7178 S.2     1  UNL1       -0.0512
     28 N          14.7358   42.2453    7.2022 N.ar    1  UNL1       -0.2283
@<TRIPOS>BOND
     1    23    27   ar
     2    23    21    1
     3    24    27   ar
     4    25    28   ar
     5    26    25    1
     6     1     7   ar
     7     2     3   ar
     8     8     3    1
     9     8     9    1
    10     9    10    1
    11    10    11    1
    12    11    13    1
    13    14    13    1
    14    14    15    1
    15    15    16   ar
    16    17    18   ar
    17    12    13    1
    18    12     8    1
    19     4     6   ar
    20     5     4    1
    21    21     1    1
    22    18    19   ar
    23    23    28   ar
    24    24    25   ar
    25     1     2   ar
    26     3     6   ar
    27    15    19   ar
    28    16    17   ar
    29     4     7   ar
    30    21    22    1
    31    18    20    1
@<TRIPOS>MOLECULE
MolPort-046-971-918 MCULE-4054959356
 28 31 0 0 0
SMALL
GASTEIGER

@<TRIPOS>ATOM
      1 C          13.1956   42.1771    6.3720 C.ar    1  UNL1        0.1361
      2 C          13.6843   41.4160    7.4335 C.ar    1  UNL1        0.0492
      3 C          14.8922   41.7886    8.0227 C.ar    1  UNL1        0.0641
      4 C          15.0774   43.6058    6.5208 C.ar    1  UNL1        0.1406
      5 C          15.8288   44.7886    6.0265 C.3     1  UNL1        0.0737
      6 N          15.5665   42.8746    7.5556 N.ar    1  UNL1       -0.2349
      7 N          13.9015   43.2563    5.9371 N.ar    1  UNL1       -0.2159
      8 C          15.4350   40.9867    9.1582 C.3     1  UNL1        0.0564
      9 C          16.9663   41.0222    9.1680 C.3     1  UNL1        0.0087
     10 C          17.5779   39.8557    9.9484 C.3     1  UNL1        0.0178
     11 C          16.5659   39.2600   10.9240 C.3     1  UNL1        0.0724
     12 C          14.9160   39.5447    9.1075 C.3     1  UNL1        0.0783
     13 N          15.4068   38.6996   10.2150 N.3     1  UNL1       -0.2673
     14 C          14.3322   38.5919   11.1896 C.3     1  UNL1        0.1205
     15 C          13.4762   37.4103   10.8830 C.ar    1  UNL1        0.0960
     16 C          12.1891   37.4682   10.3939 C.ar    1  UNL1        0.0378
     17 C          11.8313   36.1345   10.2874 C.ar    1  UNL1        0.0921
     18 N          12.8576   35.3616   10.6954 N.ar    1  UNL1       -0.2746
     19 N          13.8623   36.1379   11.0603 N.ar    1  UNL1       -0.1756
     20 H          12.8584   34.3773   10.7177 H       1  UNL1        0.1890
     21 N          11.9567   41.8054    5.7589 N.pl3   1  UNL1       -0.2781
     22 H          11.9786   41.5700    4.8032 H       1  UNL1        0.1555
     23 C          10.6888   41.7477    6.4202 C.ar    1  UNL1        0.1642
     24 C           8.8140   41.7087    8.0239 C.ar    1  UNL1        0.0528
     25 C           8.4733   41.5879    6.6768 C.ar    1  UNL1        0.0678
     26 C           7.0642   41.4437    6.2271 C.3     1  UNL1        0.0527
     27 S          10.4935   41.8473    8.0796 S.2     1  UNL1       -0.0512
     28 N           9.5046   41.6093    5.7905 N.ar    1  UNL1       -0.2283
@<TRIPOS>BOND
     1    23    27   ar
     2    23    21    1
     3    24    27   ar
     4    25    28   ar
     5    26    25    1
     6     1     7   ar
     7     2     3   ar
     8     8     3    1
     9     8     9    1
    10     9    10    1
    11    10    11    1
    12    11    13    1
    13    14    13    1
    14    14    15    1
    15    15    16   ar
    16    17    18   ar
    17    12    13    1
    18    12     8    1
    19     4     6   ar
    20     5     4    1
    21    21     1    1
    22    18    19   ar
    23    23    28   ar
    24    24    25   ar
    25     1     2   ar
    26     3     6   ar
    27    15    19   ar
    28    16    17   ar
    29     4     7   ar
    30    21    22    1
    31    18    20    1
@<TRIPOS>MOLECULE
MolPort-046-971-918 MCULE-4054959356
 28 31 0 0 0
SMALL
GASTEIGER

@<TRIPOS>ATOM
      1 C          12.6491   42.3347    6.2781 C.ar    1  UNL1        0.1361
      2 C          12.0573   42.5257    7.5263 C.ar    1  UNL1        0.0492
      3 C          10.9961   41.6999    7.8964 C.ar    1  UNL1        0.0641
      4 C          11.1467   40.5610    5.8294 C.ar    1  UNL1        0.1406
      5 C          10.6558   39.5005    4.9117 C.3     1  UNL1        0.0737
      6 N          10.5600   40.7346    7.0420 N.ar    1  UNL1       -0.2349
      7 N          12.1823   41.3565    5.4550 N.ar    1  UNL1       -0.2159
      8 C          10.3464   41.8887    9.2265 C.3     1  UNL1        0.0564
      9 C          11.1759   41.2354   10.3362 C.3     1  UNL1        0.0087
     10 C          10.3530   40.9460   11.5944 C.3     1  UNL1        0.0178
     11 C           9.0956   41.8107   11.6365 C.3     1  UNL1        0.0724
     12 C           8.9120   41.3468    9.2170 C.3     1  UNL1        0.0783
     13 N           8.2067   41.5159   10.5036 N.3     1  UNL1       -0.2673
     14 C           7.3143   42.6562   10.3643 C.3     1  UNL1        0.1205
     15 C           7.0851   42.9569    8.9221 C.ar    1  UNL1        0.0960
     16 C           6.2576   42.2413    8.0840 C.ar    1  UNL1        0.0378
     17 C           6.3911   42.8982    6.8720 C.ar    1  UNL1        0.0921
     18 N           7.2486   43.9286    7.0132 N.ar    1  UNL1       -0.2746
     19 N           7.6744   43.9660    8.2632 N.ar    1  UNL1       -0.1756
     20 H           7.5147   44.5528    6.2998 H       1  UNL1        0.1890
     21 N          13.7395   43.1754    5.8865 N.pl3   1  UNL1       -0.2781
     22 H          13.6162   43.7295    5.0821 H       1  UNL1        0.1555
     23 C          14.9941   43.2771    6.5675 C.ar    1  UNL1        0.1642
     24 C          17.1928   43.9420    7.4688 C.ar    1  UNL1        0.0528
     25 C          16.6896   42.7200    7.9146 C.ar    1  UNL1        0.0678
     26 C          17.4304   41.8632    8.8768 C.3     1  UNL1        0.0527
     27 S          16.0452   44.5696    6.4047 S.2     1  UNL1       -0.0512
     28 N          15.4778   42.3510    7.4196 N.ar    1  UNL1       -0.2283
@<TRIPOS>BOND
     1    23    27   ar
     2    23    21    1
     3    24    27   ar
     4    25    28   ar
     5    26    25    1
     6     1     7   ar
     7     2     3   ar
     8     8     3    1
     9     8     9    1
    10     9    10    1
    11    10    11    1
    12    11    13    1
    13    14    13    1
    14    14    15    1
    15    15    16   ar
    16    17    18   ar
    17    12    13    1
    18    12     8    1
    19     4     6   ar
    20     5     4    1
    21    21     1    1
    22    18    19   ar
    23    23    28   ar
    24    24    25   ar
    25     1     2   ar
    26     3     6   ar
    27    15    19   ar
    28    16    17   ar
    29     4     7   ar
    30    21    22    1
    31    18    20    1
@<TRIPOS>MOLECULE
MolPort-046-971-918 MCULE-4054959356
 28 31 0 0 0
SMALL
GASTEIGER

@<TRIPOS>ATOM
      1 C          13.0917   41.2055    8.4834 C.ar    1  UNL1        0.1361
      2 C          11.8436   41.6381    8.9305 C.ar    1  UNL1        0.0492
      3 C          11.4059   41.2285   10.1898 C.ar    1  UNL1        0.0641
      4 C          13.4075   40.0083   10.5011 C.ar    1  UNL1        0.1406
      5 C          14.2533   39.1277   11.3481 C.3     1  UNL1        0.0737
      6 N          12.1942   40.4212   10.9507 N.ar    1  UNL1       -0.2349
      7 N          13.8485   40.3998    9.2772 N.ar    1  UNL1       -0.2159
      8 C          10.0723   41.6773   10.6869 C.3     1  UNL1        0.0564
      9 C           9.8449   41.2164   12.1299 C.3     1  UNL1        0.0087
     10 C           8.3628   41.1870   12.5125 C.3     1  UNL1        0.0178
     11 C           7.5411   42.0800   11.5863 C.3     1  UNL1        0.0724
     12 C           8.9502   41.1838    9.7658 C.3     1  UNL1        0.0783
     13 N           7.6021   41.6069   10.1960 N.3     1  UNL1       -0.2673
     14 C           7.2083   42.7268    9.3553 C.3     1  UNL1        0.1205
     15 C           5.7264   42.7523    9.1932 C.ar    1  UNL1        0.0960
     16 C           4.8874   41.6778    9.3953 C.ar    1  UNL1        0.0378
     17 C           3.6348   42.1981    9.1150 C.ar    1  UNL1        0.0921
     18 N           3.7557   43.4958    8.7707 N.ar    1  UNL1       -0.2746
     19 N           5.0313   43.8361    8.8166 N.ar    1  UNL1       -0.1756
     20 H           3.0131   44.0935    8.5247 H       1  UNL1        0.1890
     21 N          13.5527   41.6193    7.1929 N.pl3   1  UNL1       -0.2781
     22 H          13.1715   41.1615    6.4091 H       1  UNL1        0.1555
     23 C          14.5218   42.6435    6.9478 C.ar    1  UNL1        0.1642
     24 C          15.7869   44.6271    6.2038 C.ar    1  UNL1        0.0528
     25 C          16.4532   43.7634    7.0730 C.ar    1  UNL1        0.0678
     26 C          17.8448   44.0176    7.5283 C.3     1  UNL1        0.0527
     27 S          14.2561   43.9652    5.9556 S.2     1  UNL1       -0.0512
     28 N          15.7582   42.6693    7.4849 N.ar    1  UNL1       -0.2283
@<TRIPOS>BOND
     1    23    27   ar
     2    23    21    1
     3    24    27   ar
     4    25    28   ar
     5    26    25    1
     6     1     7   ar
     7     2     3   ar
     8     8     3    1
     9     8     9    1
    10     9    10    1
    11    10    11    1
    12    11    13    1
    13    14    13    1
    14    14    15    1
    15    15    16   ar
    16    17    18   ar
    17    12    13    1
    18    12     8    1
    19     4     6   ar
    20     5     4    1
    21    21     1    1
    22    18    19   ar
    23    23    28   ar
    24    24    25   ar
    25     1     2   ar
    26     3     6   ar
    27    15    19   ar
    28    16    17   ar
    29     4     7   ar
    30    21    22    1
    31    18    20    1
@<TRIPOS>MOLECULE
MolPort-046-971-918 MCULE-4054959356
 28 31 0 0 0
SMALL
GASTEIGER

@<TRIPOS>ATOM
      1 C          17.0726   40.5723    9.5275 C.ar    1  UNL1        0.1361
      2 C          15.6884   40.4420    9.6363 C.ar    1  UNL1        0.0492
      3 C          15.1668   39.2514   10.1418 C.ar    1  UNL1        0.0641
      4 C          17.3538   38.3902   10.4017 C.ar    1  UNL1        0.1406
      5 C          18.2546   37.2829   10.8144 C.3     1  UNL1        0.0737
      6 N          16.0077   38.2482   10.5138 N.ar    1  UNL1       -0.2349
      7 N          17.8773   39.5444    9.9123 N.ar    1  UNL1       -0.2159
      8 C          13.6883   39.0895   10.2642 C.3     1  UNL1        0.0564
      9 C          13.2115   37.8457    9.5081 C.3     1  UNL1        0.0087
     10 C          11.7205   37.9002    9.1649 C.3     1  UNL1        0.0178
     11 C          10.9866   38.8864   10.0701 C.3     1  UNL1        0.0724
     12 C          12.9577   40.3464    9.7769 C.3     1  UNL1        0.0783
     13 N          11.4874   40.2557    9.8847 N.3     1  UNL1       -0.2673
     14 C          11.0900   41.0098   11.0635 C.3     1  UNL1        0.1205
     15 C           9.6172   41.2411   11.0538 C.ar    1  UNL1        0.0960
     16 C           8.8966   41.7229    9.9824 C.ar    1  UNL1        0.0378
     17 C           7.5998   41.7650   10.4672 C.ar    1  UNL1        0.0921
     18 N           7.5849   41.3329   11.7440 N.ar    1  UNL1       -0.2746
     19 N           8.8150   41.0136   12.1047 N.ar    1  UNL1       -0.1756
     20 H           6.7860   41.2662   12.3155 H       1  UNL1        0.1890
     21 N          17.6207   41.7895    9.0106 N.pl3   1  UNL1       -0.2781
     22 H          18.5068   42.0621    9.3418 H       1  UNL1        0.1555
     23 C          16.9870   42.6429    8.0523 C.ar    1  UNL1        0.1642
     24 C          16.3880   44.3823    6.4078 C.ar    1  UNL1        0.0528
     25 C          15.3976   43.4444    6.6990 C.ar    1  UNL1        0.0678
     26 C          14.0569   43.4851    6.0591 C.3     1  UNL1        0.0527
     27 S          17.7277   43.9661    7.3435 S.2     1  UNL1       -0.0512
     28 N          15.7251   42.4843    7.6050 N.ar    1  UNL1       -0.2283
@<TRIPOS>BOND
     1    23    27   ar
     2    23    21    1
     3    24    27   ar
     4    25    28   ar
     5    26    25    1
     6     1     7   ar
     7     2     3   ar
     8     8     3    1
     9     8     9    1
    10     9    10    1
    11    10    11    1
    12    11    13    1
    13    14    13    1
    14    14    15    1
    15    15    16   ar
    16    17    18   ar
    17    12    13    1
    18    12     8    1
    19     4     6   ar
    20     5     4    1
    21    21     1    1
    22    18    19   ar
    23    23    28   ar
    24    24    25   ar
    25     1     2   ar
    26     3     6   ar
    27    15    19   ar
    28    16    17   ar
    29     4     7   ar
    30    21    22    1
    31    18    20    1
@<TRIPOS>MOLECULE
MolPort-046-971-918 MCULE-4054959356
 28 31 0 0 0
SMALL
GASTEIGER

@<TRIPOS>ATOM
      1 C          16.3156   40.6602    9.2711 C.ar    1  UNL1        0.1361
      2 C          14.9417   40.7116    9.0372 C.ar    1  UNL1        0.0492
      3 C          14.1348   39.7071    9.5708 C.ar    1  UNL1        0.0641
      4 C          16.0356   38.6681   10.5192 C.ar    1  UNL1        0.1406
      5 C          16.6280   37.5649   11.3192 C.3     1  UNL1        0.0737
      6 N          14.6957   38.7044   10.3002 N.ar    1  UNL1       -0.2349
      7 N          16.8349   39.6401   10.0072 N.ar    1  UNL1       -0.2159
      8 C          12.6623   39.7411    9.3304 C.3     1  UNL1        0.0564
      9 C          12.0510   38.3460    9.4925 C.3     1  UNL1        0.0087
     10 C          10.7009   38.2082    8.7839 C.3     1  UNL1        0.0178
     11 C          10.0684   39.5763    8.5414 C.3     1  UNL1        0.0724
     12 C          12.3465   40.3256    7.9485 C.3     1  UNL1        0.0783
     13 N          10.9012   40.3997    7.6533 N.3     1  UNL1       -0.2673
     14 C          10.4865   41.7799    7.8518 C.3     1  UNL1        0.1205
     15 C           9.1497   42.0094    7.2327 C.ar    1  UNL1        0.0960
     16 C           8.0240   42.4293    7.9077 C.ar    1  UNL1        0.0378
     17 C           7.0610   42.4822    6.9137 C.ar    1  UNL1        0.0921
     18 N           7.6087   42.1108    5.7393 N.ar    1  UNL1       -0.2746
     19 N           8.8832   41.8208    5.9315 N.ar    1  UNL1       -0.1756
     20 H           7.1354   42.0634    4.8773 H       1  UNL1        0.1890
     21 N          17.1548   41.6855    8.7294 N.pl3   1  UNL1       -0.2781
     22 H          18.0992   41.6900    9.0075 H       1  UNL1        0.1555
     23 C          16.7346   42.7048    7.8168 C.ar    1  UNL1        0.1642
     24 C          16.5302   44.6583    6.3233 C.ar    1  UNL1        0.0528
     25 C          15.4047   43.8407    6.4236 C.ar    1  UNL1        0.0678
     26 C          14.1516   44.1246    5.6766 C.3     1  UNL1        0.0527
     27 S          17.7047   43.9762    7.3225 S.2     1  UNL1       -0.0512
     28 N          15.5145   42.7631    7.2460 N.ar    1  UNL1       -0.2283
@<TRIPOS>BOND
     1    23    27   ar
     2    23    21    1
     3    24    27   ar
     4    25    28   ar
     5    26    25    1
     6     1     7   ar
     7     2     3   ar
     8     8     3    1
     9     8     9    1
    10     9    10    1
    11    10    11    1
    12    11    13    1
    13    14    13    1
    14    14    15    1
    15    15    16   ar
    16    17    18   ar
    17    12    13    1
    18    12     8    1
    19     4     6   ar
    20     5     4    1
    21    21     1    1
    22    18    19   ar
    23    23    28   ar
    24    24    25   ar
    25     1     2   ar
    26     3     6   ar
    27    15    19   ar
    28    16    17   ar
    29     4     7   ar
    30    21    22    1
    31    18    20    1
@<TRIPOS>MOLECULE
MolPort-046-971-918 MCULE-4054959356
 28 31 0 0 0
SMALL
GASTEIGER

@<TRIPOS>ATOM
      1 C          15.6971   40.9936    8.7366 C.ar    1  UNL1        0.1361
      2 C          14.3308   41.0143    8.4580 C.ar    1  UNL1        0.0492
      3 C          13.8359   42.0065    7.6121 C.ar    1  UNL1        0.0641
      4 C          16.0132   42.8949    7.3618 C.ar    1  UNL1        0.1406
      5 C          16.9231   43.9101    6.7708 C.3     1  UNL1        0.0737
      6 N          14.6847   42.9282    7.0809 N.ar    1  UNL1       -0.2349
      7 N          16.5107   41.9338    8.1831 N.ar    1  UNL1       -0.2159
      8 C          12.3766   42.0489    7.3027 C.3     1  UNL1        0.0564
      9 C          11.5586   42.3231    8.5683 C.3     1  UNL1        0.0087
     10 C          10.0986   41.8824    8.4334 C.3     1  UNL1        0.0178
     11 C           9.6964   41.7645    6.9655 C.3     1  UNL1        0.0724
     12 C          11.9234   40.7518    6.6220 C.3     1  UNL1        0.0783
     13 N          10.4875   40.7352    6.2762 N.3     1  UNL1       -0.2673
     14 C          10.3797   41.0090    4.8515 C.3     1  UNL1        0.1205
     15 C          10.0840   39.7515    4.1071 C.ar    1  UNL1        0.0960
     16 C          10.9408   38.6786    3.9895 C.ar    1  UNL1        0.0378
     17 C          10.2226   37.7843    3.2131 C.ar    1  UNL1        0.0921
     18 N           9.0248   38.3204    2.9048 N.ar    1  UNL1       -0.2746
     19 N           8.9381   39.5214    3.4484 N.ar    1  UNL1       -0.1756
     20 H           8.3271   37.8869    2.3622 H       1  UNL1        0.1890
     21 N          16.2176   39.9800    9.6030 N.pl3   1  UNL1       -0.2781
     22 H          17.1486   40.0803    9.9069 H       1  UNL1        0.1555
     23 C          15.4965   38.8330   10.0642 C.ar    1  UNL1        0.1642
     24 C          14.2131   37.1516   11.3347 C.ar    1  UNL1        0.0528
     25 C          14.5422   36.8113   10.0227 C.ar    1  UNL1        0.0678
     26 C          14.1457   35.5123    9.4193 C.3     1  UNL1        0.0527
     27 S          14.8505   38.6897   11.6017 S.2     1  UNL1       -0.0512
     28 N          15.2495   37.7362    9.3200 N.ar    1  UNL1       -0.2283
@<TRIPOS>BOND
     1    23    27   ar
     2    23    21    1
     3    24    27   ar
     4    25    28   ar
     5    26    25    1
     6     1     7   ar
     7     2     3   ar
     8     8     3    1
     9     8     9    1
    10     9    10    1
    11    10    11    1
    12    11    13    1
    13    14    13    1
    14    14    15    1
    15    15    16   ar
    16    17    18   ar
    17    12    13    1
    18    12     8    1
    19     4     6   ar
    20     5     4    1
    21    21     1    1
    22    18    19   ar
    23    23    28   ar
    24    24    25   ar
    25     1     2   ar
    26     3     6   ar
    27    15    19   ar
    28    16    17   ar
    29     4     7   ar
    30    21    22    1
    31    18    20    1
@<TRIPOS>MOLECULE
MolPort-046-971-918 MCULE-4054959356
 28 31 0 0 0
SMALL
GASTEIGER

@<TRIPOS>ATOM
      1 C          12.6425   41.9171    6.5360 C.ar    1  UNL1        0.1361
      2 C          12.7194   40.8195    7.3929 C.ar    1  UNL1        0.0492
      3 C          13.8827   40.6347    8.1397 C.ar    1  UNL1        0.0641
      4 C          14.8216   42.5814    7.1799 C.ar    1  UNL1        0.1406
      5 C          15.9563   43.5338    7.0635 C.3     1  UNL1        0.0737
      6 N          14.9117   41.5172    8.0190 N.ar    1  UNL1       -0.2349
      7 N          13.6946   42.7758    6.4467 N.ar    1  UNL1       -0.2159
      8 C          13.9875   39.4653    9.0609 C.3     1  UNL1        0.0564
      9 C          13.0601   38.3322    8.6113 C.3     1  UNL1        0.0087
     10 C          12.7360   37.3523    9.7421 C.3     1  UNL1        0.0178
     11 C          13.7792   37.4353   10.8535 C.3     1  UNL1        0.0724
     12 C          13.6927   39.8798   10.5074 C.3     1  UNL1        0.0783
     13 N          13.7934   38.7676   11.4741 N.3     1  UNL1       -0.2673
     14 C          15.0717   38.8979   12.1560 C.3     1  UNL1        0.1205
     15 C          16.1913   38.6710   11.1979 C.ar    1  UNL1        0.0960
     16 C          16.6542   37.4366   10.7962 C.ar    1  UNL1        0.0378
     17 C          17.6852   37.7534    9.9273 C.ar    1  UNL1        0.0921
     18 N          17.8029   39.0935    9.8417 N.ar    1  UNL1       -0.2746
     19 N          16.8930   39.6558   10.6170 N.ar    1  UNL1       -0.1756
     20 H          18.4609   39.5755    9.2903 H       1  UNL1        0.1890
     21 N          11.4537   42.1182    5.7644 N.pl3   1  UNL1       -0.2781
     22 H          11.2572   43.0366    5.4689 H       1  UNL1        0.1555
     23 C          10.5272   41.0948    5.3868 C.ar    1  UNL1        0.1642
     24 C           8.6512   39.5040    5.1916 C.ar    1  UNL1        0.0528
     25 C           9.6310   39.4235    4.2023 C.ar    1  UNL1        0.0678
     26 C           9.5551   38.4384    3.0921 C.3     1  UNL1        0.0527
     27 S           9.1288   40.7393    6.2352 S.2     1  UNL1       -0.0512
     28 N          10.6662   40.2993    4.3072 N.ar    1  UNL1       -0.2283
@<TRIPOS>BOND
     1    23    27   ar
     2    23    21    1
     3    24    27   ar
     4    25    28   ar
     5    26    25    1
     6     1     7   ar
     7     2     3   ar
     8     8     3    1
     9     8     9    1
    10     9    10    1
    11    10    11    1
    12    11    13    1
    13    14    13    1
    14    14    15    1
    15    15    16   ar
    16    17    18   ar
    17    12    13    1
    18    12     8    1
    19     4     6   ar
    20     5     4    1
    21    21     1    1
    22    18    19   ar
    23    23    28   ar
    24    24    25   ar
    25     1     2   ar
    26     3     6   ar
    27    15    19   ar
    28    16    17   ar
    29     4     7   ar
    30    21    22    1
    31    18    20    1
