@<TRIPOS>MOLECULE
MolPort-001-808-492 CSSS00105904989 MCULE-8476172598 PubChem-2813925 ZINC000001033835
 28 30 0 0 0
SMALL
GASTEIGER

@<TRIPOS>ATOM
      1 C          14.6995   39.9256   10.0332 C.ar    1  UNL1        0.1725
      2 C          13.7597   39.4934   10.9835 C.ar    1  UNL1        0.0413
      3 C          12.4329   39.9180   10.9185 C.ar    1  UNL1        0.0180
      4 C          12.0189   40.7867    9.9028 C.ar    1  UNL1        0.0548
      5 C          12.9477   41.2168    8.9528 C.ar    1  UNL1        0.0547
      6 C          14.2815   40.7948    8.9956 C.ar    1  UNL1        0.1733
      7 C          10.2186   42.6152    9.8004 C.2     1  UNL1        0.3077
      8 C           8.3563   44.2939    9.7215 C.3     1  UNL1        0.0955
      9 C           7.3296   44.5452    8.6138 C.3     1  UNL1        0.0327
     10 C           6.3286   43.3922    8.4287 C.3     1  UNL1        0.1023
     11 C           6.4187   42.3324    9.5261 C.3     1  UNL1        0.0327
     12 C           7.8493   41.8074    9.6217 C.3     1  UNL1        0.0955
     13 O          11.0489   43.5603    9.8907 O.2     1  UNL1       -0.2522
     14 N          10.6655   41.2503    9.8033 N.am    1  UNL1       -0.2680
     15 N           8.8184   42.9056    9.6907 N.am    1  UNL1       -0.2639
     16 H           9.9682   40.5592    9.7290 H       1  UNL1        0.1564
     17 C           4.9394   43.9238    8.3310 C.2     1  UNL1        0.3134
     18 O           3.8486   43.0838    8.5225 O.3     1  UNL1       -0.4802
     19 O           4.7533   45.1411    8.0733 O.2     1  UNL1       -0.2503
     20 H           3.9838   42.1767    8.7145 H       1  UNL1        0.2951
     21 C          16.6244   39.0573   11.3327 C.3     1  UNL1        0.2526
     22 O          16.0334   39.5114   10.1223 O.3     1  UNL1       -0.4684
     23 O          15.1384   41.2779    7.9942 O.3     1  UNL1       -0.4761
     24 C          15.7056   42.5817    7.9650 C.3     1  UNL1        0.1660
     25 C          17.2152   42.5021    8.0225 C.3     1  UNL1        0.0435
     26 C          17.7192   43.6955    7.2364 C.3     1  UNL1        0.0038
     27 C          16.5651   44.1733    6.3717 C.3     1  UNL1        0.0038
     28 C          15.3974   43.2472    6.6455 C.3     1  UNL1        0.0435
@<TRIPOS>BOND
     1    21    22    1
     2     1    22    1
     3     2     3   ar
     4     4    14    1
     5     4     5   ar
     6     7    15   am
     7     8    15    1
     8     8     9    1
     9     9    10    1
    10    10    11    1
    11    10    17    1
    12    11    12    1
    13    12    15    1
    14    17    18    1
    15     6    23    1
    16     6     1   ar
    17    24    23    1
    18    24    25    1
    19    25    26    1
    20    26    27    1
    21    27    28    1
    22    28    24    1
    23    14     7   am
    24     1     2   ar
    25     3     4   ar
    26     7    13    2
    27    17    19    2
    28     5     6   ar
    29    18    20    1
    30    14    16    1
@<TRIPOS>MOLECULE
MolPort-001-808-492 CSSS00105904989 MCULE-8476172598 PubChem-2813925 ZINC000001033835
 28 30 0 0 0
SMALL
GASTEIGER

@<TRIPOS>ATOM
      1 C           6.5367   43.6070    8.9073 C.ar    1  UNL1        0.1725
      2 C           7.8363   44.0594    9.1893 C.ar    1  UNL1        0.0413
      3 C           8.8859   43.1559    9.3536 C.ar    1  UNL1        0.0180
      4 C           8.6567   41.7802    9.2422 C.ar    1  UNL1        0.0548
      5 C           7.3676   41.3244    8.9581 C.ar    1  UNL1        0.0547
      6 C           6.3030   42.2156    8.7807 C.ar    1  UNL1        0.1733
      7 C          11.1039   41.0902    9.6032 C.2     1  UNL1        0.3077
      8 C          13.4550   40.2751    9.9201 C.3     1  UNL1        0.0955
      9 C          14.0383   39.4282   11.0544 C.3     1  UNL1        0.0327
     10 C          13.5100   37.9839   11.0792 C.3     1  UNL1        0.1023
     11 C          12.6859   37.6213    9.8444 C.3     1  UNL1        0.0327
     12 C          11.5442   38.6205    9.6730 C.3     1  UNL1        0.0955
     13 O          11.5246   42.2785    9.6438 O.2     1  UNL1       -0.2522
     14 N           9.7072   40.8182    9.4087 N.am    1  UNL1       -0.2680
     15 N          12.0265   40.0027    9.7557 N.am    1  UNL1       -0.2639
     16 H           9.4427   39.8702    9.3874 H       1  UNL1        0.1564
     17 C          14.6369   37.0238   11.2534 C.2     1  UNL1        0.3134
     18 O          14.7116   35.8761   10.4730 O.3     1  UNL1       -0.4802
     19 O          15.5263   37.2542   12.1130 O.2     1  UNL1       -0.2503
     20 H          14.0508   35.7016    9.8320 H       1  UNL1        0.2951
     21 C           4.8301   44.7645    7.5303 C.3     1  UNL1        0.2526
     22 O           5.4868   44.5219    8.7676 O.3     1  UNL1       -0.4684
     23 O           5.0454   41.6617    8.4939 O.3     1  UNL1       -0.4761
     24 C           4.1301   41.1693    9.4645 C.3     1  UNL1        0.1660
     25 C           4.8278   40.9624   10.7908 C.3     1  UNL1        0.0435
     26 C           3.7768   41.2199   11.8516 C.3     1  UNL1        0.0038
     27 C           2.6560   41.9971   11.1826 C.3     1  UNL1        0.0038
     28 C           3.0648   42.2032    9.7381 C.3     1  UNL1        0.0435
@<TRIPOS>BOND
     1    21    22    1
     2     1    22    1
     3     2     3   ar
     4     4    14    1
     5     4     5   ar
     6     7    15   am
     7     8    15    1
     8     8     9    1
     9     9    10    1
    10    10    11    1
    11    10    17    1
    12    11    12    1
    13    12    15    1
    14    17    18    1
    15     6    23    1
    16     6     1   ar
    17    24    23    1
    18    24    25    1
    19    25    26    1
    20    26    27    1
    21    27    28    1
    22    28    24    1
    23    14     7   am
    24     1     2   ar
    25     3     4   ar
    26     7    13    2
    27    17    19    2
    28     5     6   ar
    29    18    20    1
    30    14    16    1
@<TRIPOS>MOLECULE
MolPort-001-808-492 CSSS00105904989 MCULE-8476172598 PubChem-2813925 ZINC000001033835
 28 30 0 0 0
SMALL
GASTEIGER

@<TRIPOS>ATOM
      1 C          14.8723   40.0681    9.3625 C.ar    1  UNL1        0.1725
      2 C          14.4444   40.9929    8.3957 C.ar    1  UNL1        0.0413
      3 C          13.1221   41.4354    8.3682 C.ar    1  UNL1        0.0180
      4 C          12.1991   40.9596    9.3058 C.ar    1  UNL1        0.0548
      5 C          12.6194   40.0430   10.2718 C.ar    1  UNL1        0.0547
      6 C          13.9440   39.5938   10.3217 C.ar    1  UNL1        0.1733
      7 C          10.3398   42.7147    9.5462 C.2     1  UNL1        0.3077
      8 C           8.4239   44.3161    9.7853 C.3     1  UNL1        0.0955
      9 C           7.3655   44.7159    8.7536 C.3     1  UNL1        0.0327
     10 C           6.3979   43.5768    8.3907 C.3     1  UNL1        0.1023
     11 C           6.5457   42.3497    9.2895 C.3     1  UNL1        0.0327
     12 C           7.9940   41.8665    9.2708 C.3     1  UNL1        0.0955
     13 O          11.1414   43.6592    9.7830 O.2     1  UNL1       -0.2522
     14 N          10.8298   41.3857    9.3089 N.am    1  UNL1       -0.2680
     15 N           8.9290   42.9703    9.5105 N.am    1  UNL1       -0.2639
     16 H          10.1534   40.6933    9.1291 H       1  UNL1        0.1564
     17 C           4.9907   44.0683    8.4078 C.2     1  UNL1        0.3134
     18 O           3.9890   43.3157    9.0096 O.3     1  UNL1       -0.4802
     19 O           4.7081   45.1717    7.8736 O.2     1  UNL1       -0.2503
     20 H           4.1961   42.4935    9.4084 H       1  UNL1        0.2951
     21 C          17.2801   40.3886    9.8604 C.3     1  UNL1        0.2526
     22 O          16.1960   39.6135    9.3658 O.3     1  UNL1       -0.4684
     23 O          14.2713   38.6759   11.3321 O.3     1  UNL1       -0.4761
     24 C          14.1561   37.2629   11.2194 C.3     1  UNL1        0.1660
     25 C          12.7121   36.8665   11.0045 C.3     1  UNL1        0.0435
     26 C          12.7533   35.6109   10.1572 C.3     1  UNL1        0.0038
     27 C          14.1311   35.5539    9.5198 C.3     1  UNL1        0.0038
     28 C          14.8827   36.7844    9.9858 C.3     1  UNL1        0.0435
@<TRIPOS>BOND
     1    21    22    1
     2     1    22    1
     3     2     3   ar
     4     4    14    1
     5     4     5   ar
     6     7    15   am
     7     8    15    1
     8     8     9    1
     9     9    10    1
    10    10    11    1
    11    10    17    1
    12    11    12    1
    13    12    15    1
    14    17    18    1
    15     6    23    1
    16     6     1   ar
    17    24    23    1
    18    24    25    1
    19    25    26    1
    20    26    27    1
    21    27    28    1
    22    28    24    1
    23    14     7   am
    24     1     2   ar
    25     3     4   ar
    26     7    13    2
    27    17    19    2
    28     5     6   ar
    29    18    20    1
    30    14    16    1
@<TRIPOS>MOLECULE
MolPort-001-808-492 CSSS00105904989 MCULE-8476172598 PubChem-2813925 ZINC000001033835
 28 30 0 0 0
SMALL
GASTEIGER

@<TRIPOS>ATOM
      1 C          14.4442   36.9126    6.9979 C.ar    1  UNL1        0.1725
      2 C          14.7873   36.8465    8.3584 C.ar    1  UNL1        0.0413
      3 C          14.1163   37.6244    9.3016 C.ar    1  UNL1        0.0180
      4 C          13.0897   38.4874    8.9031 C.ar    1  UNL1        0.0548
      5 C          12.7414   38.5547    7.5524 C.ar    1  UNL1        0.0547
      6 C          13.3965   37.7754    6.5919 C.ar    1  UNL1        0.1733
      7 C          10.9660   39.5660    9.8630 C.2     1  UNL1        0.3077
      8 C           8.9800   40.7078   10.8851 C.3     1  UNL1        0.0955
      9 C           8.4069   40.5670   12.2979 C.3     1  UNL1        0.0327
     10 C           9.3253   41.1328   13.3944 C.3     1  UNL1        0.1023
     11 C          10.5148   41.9164   12.8406 C.3     1  UNL1        0.0327
     12 C          11.2993   41.0437   11.8639 C.3     1  UNL1        0.0955
     13 O          10.2072   39.0500    8.9977 O.2     1  UNL1       -0.2522
     14 N          12.3784   39.3073    9.8404 N.am    1  UNL1       -0.2680
     15 N          10.4139   40.4146   10.8789 N.am    1  UNL1       -0.2639
     16 H          12.9158   39.7388   10.5434 H       1  UNL1        0.1564
     17 C           8.5415   41.9761   14.3412 C.2     1  UNL1        0.3134
     18 O           8.0876   41.4485   15.5444 O.3     1  UNL1       -0.4802
     19 O           8.2892   43.1735   14.0490 O.2     1  UNL1       -0.2503
     20 H           8.2738   40.5571   15.7650 H       1  UNL1        0.2951
     21 C          14.5324   35.6168    4.8858 C.3     1  UNL1        0.2526
     22 O          15.1402   36.1447    6.0574 O.3     1  UNL1       -0.4684
     23 O          12.9722   37.9096    5.2606 O.3     1  UNL1       -0.4761
     24 C          11.6250   38.1059    4.8494 C.3     1  UNL1        0.1660
     25 C          10.9499   39.1363    5.7276 C.3     1  UNL1        0.0435
     26 C           9.9380   39.8320    4.8398 C.3     1  UNL1        0.0038
     27 C          10.3389   39.5429    3.4033 C.3     1  UNL1        0.0038
     28 C          11.5919   38.6925    3.4589 C.3     1  UNL1        0.0435
@<TRIPOS>BOND
     1    21    22    1
     2     1    22    1
     3     2     3   ar
     4     4    14    1
     5     4     5   ar
     6     7    15   am
     7     8    15    1
     8     8     9    1
     9     9    10    1
    10    10    11    1
    11    10    17    1
    12    11    12    1
    13    12    15    1
    14    17    18    1
    15     6    23    1
    16     6     1   ar
    17    24    23    1
    18    24    25    1
    19    25    26    1
    20    26    27    1
    21    27    28    1
    22    28    24    1
    23    14     7   am
    24     1     2   ar
    25     3     4   ar
    26     7    13    2
    27    17    19    2
    28     5     6   ar
    29    18    20    1
    30    14    16    1
@<TRIPOS>MOLECULE
MolPort-001-808-492 CSSS00105904989 MCULE-8476172598 PubChem-2813925 ZINC000001033835
 28 30 0 0 0
SMALL
GASTEIGER

@<TRIPOS>ATOM
      1 C           7.1165   43.7120    9.0771 C.ar    1  UNL1        0.1725
      2 C           8.3142   44.3366    9.4624 C.ar    1  UNL1        0.0413
      3 C           9.4358   43.5803    9.8016 C.ar    1  UNL1        0.0180
      4 C           9.3818   42.1827    9.7654 C.ar    1  UNL1        0.0548
      5 C           8.1951   41.5559    9.3794 C.ar    1  UNL1        0.0547
      6 C           7.0616   42.2973    9.0265 C.ar    1  UNL1        0.1733
      7 C          11.5674   40.9422    9.2370 C.2     1  UNL1        0.3077
      8 C          13.6902   39.6616    8.8544 C.3     1  UNL1        0.0955
      9 C          15.0648   39.8566    9.4998 C.3     1  UNL1        0.0327
     10 C          15.0972   39.5074   10.9974 C.3     1  UNL1        0.1023
     11 C          13.8182   38.8290   11.4869 C.3     1  UNL1        0.0327
     12 C          12.6101   39.7006   11.1525 C.3     1  UNL1        0.0955
     13 O          11.5694   41.2823    8.0224 O.2     1  UNL1       -0.2522
     14 N          10.5108   41.3688   10.1111 N.am    1  UNL1       -0.2680
     15 N          12.6298   40.1264    9.7496 N.am    1  UNL1       -0.2639
     16 H          10.5676   41.0706   11.0476 H       1  UNL1        0.1564
     17 C          16.2857   38.6622   11.3059 C.2     1  UNL1        0.3134
     18 O          16.1326   37.4381   11.9463 O.3     1  UNL1       -0.4802
     19 O          17.4352   39.0600   10.9844 O.2     1  UNL1       -0.2503
     20 H          15.2779   37.1390   12.1871 H       1  UNL1        0.2951
     21 C           5.4269   44.5302    7.4573 C.3     1  UNL1        0.2526
     22 O           5.9905   44.4809    8.7614 O.3     1  UNL1       -0.4684
     23 O           5.9176   41.5771    8.6482 O.3     1  UNL1       -0.4761
     24 C           4.8984   41.1384    9.5377 C.3     1  UNL1        0.1660
     25 C           5.2272   41.5429   10.9578 C.3     1  UNL1        0.0435
     26 C           3.8928   41.7720   11.6384 C.3     1  UNL1        0.0038
     27 C           2.8613   41.9510   10.5376 C.3     1  UNL1        0.0038
     28 C           3.6007   41.8409    9.2195 C.3     1  UNL1        0.0435
@<TRIPOS>BOND
     1    21    22    1
     2     1    22    1
     3     2     3   ar
     4     4    14    1
     5     4     5   ar
     6     7    15   am
     7     8    15    1
     8     8     9    1
     9     9    10    1
    10    10    11    1
    11    10    17    1
    12    11    12    1
    13    12    15    1
    14    17    18    1
    15     6    23    1
    16     6     1   ar
    17    24    23    1
    18    24    25    1
    19    25    26    1
    20    26    27    1
    21    27    28    1
    22    28    24    1
    23    14     7   am
    24     1     2   ar
    25     3     4   ar
    26     7    13    2
    27    17    19    2
    28     5     6   ar
    29    18    20    1
    30    14    16    1
@<TRIPOS>MOLECULE
MolPort-001-808-492 CSSS00105904989 MCULE-8476172598 PubChem-2813925 ZINC000001033835
 28 30 0 0 0
SMALL
GASTEIGER

@<TRIPOS>ATOM
      1 C          15.6832   42.4723    7.4993 C.ar    1  UNL1        0.1725
      2 C          14.7701   43.3128    6.8412 C.ar    1  UNL1        0.0413
      3 C          13.3959   43.1389    7.0038 C.ar    1  UNL1        0.0180
      4 C          12.9061   42.1184    7.8262 C.ar    1  UNL1        0.0548
      5 C          13.8089   41.2821    8.4861 C.ar    1  UNL1        0.0547
      6 C          15.1916   41.4461    8.3431 C.ar    1  UNL1        0.1733
      7 C          10.6510   42.5495    8.9767 C.2     1  UNL1        0.3077
      8 C           8.3946   42.8477   10.0314 C.3     1  UNL1        0.0955
      9 C           7.0855   43.3200    9.3931 C.3     1  UNL1        0.0327
     10 C           6.5032   42.3257    8.3743 C.3     1  UNL1        0.1023
     11 C           7.2229   40.9776    8.3671 C.3     1  UNL1        0.0327
     12 C           8.7168   41.1902    8.1344 C.3     1  UNL1        0.0955
     13 O          11.1208   43.4101    9.7700 O.2     1  UNL1       -0.2522
     14 N          11.5010   41.9033    8.0163 N.am    1  UNL1       -0.2680
     15 N           9.2571   42.2162    9.0317 N.am    1  UNL1       -0.2639
     16 H          11.0736   41.2420    7.4254 H       1  UNL1        0.1564
     17 C           5.0441   42.1357    8.6128 C.2     1  UNL1        0.3134
     18 O           4.4637   40.8813    8.4658 O.3     1  UNL1       -0.4802
     19 O           4.3332   43.1178    8.9493 O.2     1  UNL1       -0.2503
     20 H           4.9903   40.1479    8.2153 H       1  UNL1        0.2951
     21 C          17.6177   43.7694    6.6489 C.3     1  UNL1        0.2526
     22 O          17.0595   42.6416    7.3101 O.3     1  UNL1       -0.4684
     23 O          16.0182   40.5590    9.0503 O.3     1  UNL1       -0.4761
     24 C          15.5782   39.3665    9.6883 C.3     1  UNL1        0.1660
     25 C          16.7085   38.7410   10.4754 C.3     1  UNL1        0.0435
     26 C          16.0538   38.0491   11.6539 C.3     1  UNL1        0.0038
     27 C          14.6637   38.6446   11.7984 C.3     1  UNL1        0.0038
     28 C          14.5188   39.6923   10.7132 C.3     1  UNL1        0.0435
@<TRIPOS>BOND
     1    21    22    1
     2     1    22    1
     3     2     3   ar
     4     4    14    1
     5     4     5   ar
     6     7    15   am
     7     8    15    1
     8     8     9    1
     9     9    10    1
    10    10    11    1
    11    10    17    1
    12    11    12    1
    13    12    15    1
    14    17    18    1
    15     6    23    1
    16     6     1   ar
    17    24    23    1
    18    24    25    1
    19    25    26    1
    20    26    27    1
    21    27    28    1
    22    28    24    1
    23    14     7   am
    24     1     2   ar
    25     3     4   ar
    26     7    13    2
    27    17    19    2
    28     5     6   ar
    29    18    20    1
    30    14    16    1
@<TRIPOS>MOLECULE
MolPort-001-808-492 CSSS00105904989 MCULE-8476172598 PubChem-2813925 ZINC000001033835
 28 30 0 0 0
SMALL
GASTEIGER

@<TRIPOS>ATOM
      1 C          16.4845   39.3127   10.6294 C.ar    1  UNL1        0.1725
      2 C          15.5078   38.4711   11.1871 C.ar    1  UNL1        0.0413
      3 C          14.2134   38.4399   10.6688 C.ar    1  UNL1        0.0180
      4 C          13.8679   39.2523    9.5833 C.ar    1  UNL1        0.0548
      5 C          14.8357   40.0882    9.0222 C.ar    1  UNL1        0.0547
      6 C          16.1425   40.1272    9.5220 C.ar    1  UNL1        0.1733
      7 C          11.5176   40.2299    9.2440 C.2     1  UNL1        0.3077
      8 C           9.1817   41.0543    8.8487 C.3     1  UNL1        0.0955
      9 C           8.5144   41.4708    7.5351 C.3     1  UNL1        0.0327
     10 C           8.2915   40.3024    6.5599 C.3     1  UNL1        0.1023
     11 C           8.5744   38.9351    7.1812 C.3     1  UNL1        0.0327
     12 C           9.9897   38.9100    7.7535 C.3     1  UNL1        0.0955
     13 O          11.7255   41.2203    9.9967 O.2     1  UNL1       -0.2522
     14 N          12.5474   39.2534    9.0240 N.am    1  UNL1       -0.2680
     15 N          10.2448   40.0795    8.6003 N.am    1  UNL1       -0.2639
     16 H          12.3229   38.5048    8.4253 H       1  UNL1        0.1564
     17 C           6.9079   40.3469    6.0070 C.2     1  UNL1        0.3134
     18 O           6.3671   41.5460    5.5577 O.3     1  UNL1       -0.4802
     19 O           6.2253   39.2918    5.9468 O.2     1  UNL1       -0.2503
     20 H           6.8729   42.3335    5.6011 H       1  UNL1        0.2951
     21 C          18.8531   38.5800   10.6643 C.3     1  UNL1        0.2526
     22 O          17.7737   39.3528   11.1728 O.3     1  UNL1       -0.4684
     23 O          17.0447   40.9960    8.8883 O.3     1  UNL1       -0.4761
     24 C          16.7945   42.3667    8.6039 C.3     1  UNL1        0.1660
     25 C          17.9818   42.9849    7.8991 C.3     1  UNL1        0.0435
     26 C          17.4084   44.0517    6.9885 C.3     1  UNL1        0.0038
     27 C          15.9301   43.7431    6.8239 C.3     1  UNL1        0.0038
     28 C          15.6504   42.4888    7.6267 C.3     1  UNL1        0.0435
@<TRIPOS>BOND
     1    21    22    1
     2     1    22    1
     3     2     3   ar
     4     4    14    1
     5     4     5   ar
     6     7    15   am
     7     8    15    1
     8     8     9    1
     9     9    10    1
    10    10    11    1
    11    10    17    1
    12    11    12    1
    13    12    15    1
    14    17    18    1
    15     6    23    1
    16     6     1   ar
    17    24    23    1
    18    24    25    1
    19    25    26    1
    20    26    27    1
    21    27    28    1
    22    28    24    1
    23    14     7   am
    24     1     2   ar
    25     3     4   ar
    26     7    13    2
    27    17    19    2
    28     5     6   ar
    29    18    20    1
    30    14    16    1
@<TRIPOS>MOLECULE
MolPort-001-808-492 CSSS00105904989 MCULE-8476172598 PubChem-2813925 ZINC000001033835
 28 30 0 0 0
SMALL
GASTEIGER

@<TRIPOS>ATOM
      1 C          13.7603   36.4489   10.0169 C.ar    1  UNL1        0.1725
      2 C          12.4845   36.1015    9.5429 C.ar    1  UNL1        0.0413
      3 C          11.4785   37.0613    9.4339 C.ar    1  UNL1        0.0180
      4 C          11.7270   38.3887    9.7997 C.ar    1  UNL1        0.0548
      5 C          12.9946   38.7410   10.2680 C.ar    1  UNL1        0.0547
      6 C          14.0199   37.7944   10.3760 C.ar    1  UNL1        0.1733
      7 C          10.5957   40.5756   10.5293 C.2     1  UNL1        0.3077
      8 C           9.3725   42.6740   11.1563 C.3     1  UNL1        0.0955
      9 C           9.1066   43.9246   10.3139 C.3     1  UNL1        0.0327
     10 C           8.1397   43.6839    9.1422 C.3     1  UNL1        0.1023
     11 C           7.4693   42.3112    9.1849 C.3     1  UNL1        0.0327
     12 C           8.5331   41.2181    9.2522 C.3     1  UNL1        0.0955
     13 O          11.4273   40.8011   11.4503 O.2     1  UNL1       -0.2522
     14 N          10.7189   39.4045    9.7073 N.am    1  UNL1       -0.2680
     15 N           9.5211   41.4972   10.2990 N.am    1  UNL1       -0.2639
     16 H          10.0388   39.2864    9.0053 H       1  UNL1        0.1564
     17 C           7.1131   44.7634    9.0886 C.2     1  UNL1        0.3134
     18 O           5.8061   44.4745    8.7138 O.3     1  UNL1       -0.4802
     19 O           7.4322   45.9438    9.3844 O.2     1  UNL1       -0.2503
     20 H           5.5653   43.5964    8.4929 H       1  UNL1        0.2951
     21 C          15.2463   34.7193    9.0431 C.3     1  UNL1        0.2526
     22 O          14.7549   35.4725   10.1440 O.3     1  UNL1       -0.4684
     23 O          15.2606   38.2460   10.8528 O.3     1  UNL1       -0.4761
     24 C          16.4664   38.2650   10.0992 C.3     1  UNL1        0.1660
     25 C          17.1418   39.6135   10.2178 C.3     1  UNL1        0.0435
     26 C          18.6283   39.3381   10.1149 C.3     1  UNL1        0.0038
     27 C          18.8234   37.8583   10.3979 C.3     1  UNL1        0.0038
     28 C          17.4516   37.2797   10.6800 C.3     1  UNL1        0.0435
@<TRIPOS>BOND
     1    21    22    1
     2     1    22    1
     3     2     3   ar
     4     4    14    1
     5     4     5   ar
     6     7    15   am
     7     8    15    1
     8     8     9    1
     9     9    10    1
    10    10    11    1
    11    10    17    1
    12    11    12    1
    13    12    15    1
    14    17    18    1
    15     6    23    1
    16     6     1   ar
    17    24    23    1
    18    24    25    1
    19    25    26    1
    20    26    27    1
    21    27    28    1
    22    28    24    1
    23    14     7   am
    24     1     2   ar
    25     3     4   ar
    26     7    13    2
    27    17    19    2
    28     5     6   ar
    29    18    20    1
    30    14    16    1
@<TRIPOS>MOLECULE
MolPort-001-808-492 CSSS00105904989 MCULE-8476172598 PubChem-2813925 ZINC000001033835
 28 30 0 0 0
SMALL
GASTEIGER

@<TRIPOS>ATOM
      1 C          14.1379   40.6355    9.2706 C.ar    1  UNL1        0.1725
      2 C          13.1444   40.2527   10.1868 C.ar    1  UNL1        0.0413
      3 C          11.8339   40.7095   10.0499 C.ar    1  UNL1        0.0180
      4 C          11.4902   41.5617    8.9948 C.ar    1  UNL1        0.0548
      5 C          12.4726   41.9428    8.0784 C.ar    1  UNL1        0.0547
      6 C          13.7912   41.4877    8.1934 C.ar    1  UNL1        0.1733
      7 C           8.9965   41.3003    8.4394 C.2     1  UNL1        0.3077
      8 C           6.5510   41.1953    7.8908 C.3     1  UNL1        0.0955
      9 C           5.3477   41.5272    8.7775 C.3     1  UNL1        0.0327
     10 C           5.2297   43.0216    9.1216 C.3     1  UNL1        0.1023
     11 C           6.2002   43.9010    8.3340 C.3     1  UNL1        0.0327
     12 C           7.6293   43.4026    8.5351 C.3     1  UNL1        0.0955
     13 O           9.0858   40.0619    8.2177 O.2     1  UNL1       -0.2522
     14 N          10.1557   42.0573    8.8213 N.am    1  UNL1       -0.2680
     15 N           7.7276   41.9567    8.3126 N.am    1  UNL1       -0.2639
     16 H          10.0197   43.0192    8.9810 H       1  UNL1        0.1564
     17 C           3.8277   43.4884    8.9256 C.2     1  UNL1        0.3134
     18 O           2.7630   42.6109    9.0944 O.3     1  UNL1       -0.4802
     19 O           3.6069   44.6847    8.6050 O.2     1  UNL1       -0.2503
     20 H           2.9240   41.7192    9.3331 H       1  UNL1        0.2951
     21 C          15.8131   39.1357   10.3156 C.3     1  UNL1        0.2526
     22 O          15.4547   40.1895    9.4315 O.3     1  UNL1       -0.4684
     23 O          14.7056   41.9223    7.2210 O.3     1  UNL1       -0.4761
     24 C          15.4361   43.1413    7.2748 C.3     1  UNL1        0.1660
     25 C          16.8312   42.8976    7.8064 C.3     1  UNL1        0.0435
     26 C          17.7131   43.9288    7.1318 C.3     1  UNL1        0.0038
     27 C          16.9523   44.4332    5.9175 C.3     1  UNL1        0.0038
     28 C          15.6362   43.6831    5.8801 C.3     1  UNL1        0.0435
@<TRIPOS>BOND
     1    21    22    1
     2     1    22    1
     3     2     3   ar
     4     4    14    1
     5     4     5   ar
     6     7    15   am
     7     8    15    1
     8     8     9    1
     9     9    10    1
    10    10    11    1
    11    10    17    1
    12    11    12    1
    13    12    15    1
    14    17    18    1
    15     6    23    1
    16     6     1   ar
    17    24    23    1
    18    24    25    1
    19    25    26    1
    20    26    27    1
    21    27    28    1
    22    28    24    1
    23    14     7   am
    24     1     2   ar
    25     3     4   ar
    26     7    13    2
    27    17    19    2
    28     5     6   ar
    29    18    20    1
    30    14    16    1
@<TRIPOS>MOLECULE
MolPort-001-808-492 CSSS00105904989 MCULE-8476172598 PubChem-2813925 ZINC000001033835
 28 30 0 0 0
SMALL
GASTEIGER

@<TRIPOS>ATOM
      1 C          13.8128   40.2489    9.8262 C.ar    1  UNL1        0.1725
      2 C          13.0548   39.8688   10.9460 C.ar    1  UNL1        0.0413
      3 C          11.6898   40.1473   11.0111 C.ar    1  UNL1        0.0180
      4 C          11.0548   40.8150    9.9582 C.ar    1  UNL1        0.0548
      5 C          11.8023   41.1921    8.8405 C.ar    1  UNL1        0.0547
      6 C          13.1711   40.9136    8.7523 C.ar    1  UNL1        0.1733
      7 C           8.7736   41.2469    8.8606 C.2     1  UNL1        0.3077
      8 C           6.4965   41.7208    7.9213 C.3     1  UNL1        0.0955
      9 C           5.1814   40.9720    8.1538 C.3     1  UNL1        0.0327
     10 C           4.6424   41.1046    9.5882 C.3     1  UNL1        0.1023
     11 C           5.4032   42.1312   10.4266 C.3     1  UNL1        0.0327
     12 C           6.8926   41.7953   10.4288 C.3     1  UNL1        0.0955
     13 O           9.2071   41.0765    7.6885 O.2     1  UNL1       -0.2522
     14 N           9.6548   41.1244    9.9880 N.am    1  UNL1       -0.2680
     15 N           7.3901   41.5618    9.0694 N.am    1  UNL1       -0.2639
     16 H           9.2551   41.2682   10.8762 H       1  UNL1        0.1564
     17 C           3.1870   41.4261    9.5662 C.2     1  UNL1        0.3134
     18 O           2.3714   40.9311    8.5553 O.3     1  UNL1       -0.4802
     19 O           2.6937   42.1505   10.4688 O.2     1  UNL1       -0.2503
     20 H           2.7356   40.3913    7.8816 H       1  UNL1        0.2951
     21 C          15.7584   38.7747   10.2612 C.3     1  UNL1        0.2526
     22 O          15.1865   39.9848    9.7824 O.3     1  UNL1       -0.4684
     23 O          13.8352   41.3284    7.5872 O.3     1  UNL1       -0.4761
     24 C          14.2111   42.6686    7.2956 C.3     1  UNL1        0.1660
     25 C          15.7180   42.8008    7.2714 C.3     1  UNL1        0.0435
     26 C          16.0181   43.8879    6.2594 C.3     1  UNL1        0.0038
     27 C          14.7761   44.0444    5.3987 C.3     1  UNL1        0.0038
     28 C          13.7620   43.0373    5.9024 C.3     1  UNL1        0.0435
@<TRIPOS>BOND
     1    21    22    1
     2     1    22    1
     3     2     3   ar
     4     4    14    1
     5     4     5   ar
     6     7    15   am
     7     8    15    1
     8     8     9    1
     9     9    10    1
    10    10    11    1
    11    10    17    1
    12    11    12    1
    13    12    15    1
    14    17    18    1
    15     6    23    1
    16     6     1   ar
    17    24    23    1
    18    24    25    1
    19    25    26    1
    20    26    27    1
    21    27    28    1
    22    28    24    1
    23    14     7   am
    24     1     2   ar
    25     3     4   ar
    26     7    13    2
    27    17    19    2
    28     5     6   ar
    29    18    20    1
    30    14    16    1
