@<TRIPOS>MOLECULE
MolPort-005-160-763 CSSS00160037773 MCULE-3804064098 PubChem-45250734
 35 38 0 0 0
SMALL
GASTEIGER

@<TRIPOS>ATOM
      1 C          15.0830   42.6539    7.3387 C.ar    1  UNL1        0.1326
      2 C          15.8088   43.8183    7.1710 C.ar    1  UNL1        0.0565
      3 C          15.1968   44.4237    6.0782 C.ar    1  UNL1        0.1230
      4 N          14.1769   43.6539    5.6420 N.ar    1  UNL1       -0.1666
      5 N          14.1195   42.5815    6.4110 N.ar    1  UNL1       -0.2394
      6 C          13.1349   41.5150    6.2743 C.3     1  UNL1        0.1093
      7 C          11.8127   42.0834    5.7477 C.3     1  UNL1        0.0418
      8 C          10.6262   41.2318    6.2033 C.3     1  UNL1        0.0744
      9 C          11.8015   41.2908    8.3990 C.3     1  UNL1        0.0744
     10 C          12.9837   40.7539    7.5964 C.3     1  UNL1        0.0418
     11 N          10.5296   41.1277    7.6739 N.3     1  UNL1       -0.2688
     12 C           9.5219   42.0610    8.1961 C.3     1  UNL1        0.0992
     13 C           9.2141   41.8749    9.6569 C.ar    1  UNL1       -0.0029
     14 C          10.2212   41.5284   10.5647 C.ar    1  UNL1        0.0004
     15 C           9.9170   41.3514   11.9164 C.ar    1  UNL1        0.0398
     16 C           8.5988   41.5113   12.3740 C.ar    1  UNL1        0.1721
     17 C           7.5898   41.8427   11.4581 C.ar    1  UNL1        0.1675
     18 C           7.8980   42.0194   10.1058 C.ar    1  UNL1        0.0369
     19 O           6.2776   41.9978   11.8872 O.3     1  UNL1       -0.5029
     20 H           6.0636   41.8809   12.7919 H       1  UNL1        0.2923
     21 C           9.2291   40.9734   14.7066 C.3     1  UNL1        0.2526
     22 O           8.2717   41.3442   13.7239 O.3     1  UNL1       -0.4684
     23 C          16.5656   41.2023    8.8199 C.2     1  UNL1        0.2587
     24 O          17.6360   41.6741    8.3533 O.2     1  UNL1       -0.2717
     25 N          15.2915   41.6532    8.3431 N.am    1  UNL1       -0.2673
     26 H          14.4908   41.2401    8.7397 H       1  UNL1        0.1563
     27 C          16.6345   40.1581    9.8889 C.3     1  UNL1        0.2135
     28 C          15.3623   39.3708    9.9739 C.ar    1  UNL1        0.0134
     29 C          14.3591   39.7097   10.8950 C.ar    1  UNL1       -0.0015
     30 C          13.1811   38.9598   10.9581 C.ar    1  UNL1       -0.0002
     31 C          12.9997   37.8703   10.1013 C.ar    1  UNL1       -0.0000
     32 C          13.9959   37.5310    9.1810 C.ar    1  UNL1       -0.0002
     33 C          15.1750   38.2799    9.1178 C.ar    1  UNL1       -0.0015
     34 C          18.0572   38.8311   10.9485 C.3     1  UNL1        0.1751
     35 O          17.7287   39.3130    9.6805 O.3     1  UNL1       -0.3400
@<TRIPOS>BOND
     1    34    35    1
     2    27    35    1
     3    27    23    1
     4    27    28    1
     5    23    25   am
     6     2     3   ar
     7     6     5    1
     8     6     7    1
     9     7     8    1
    10     8    11    1
    11    12    11    1
    12    12    13    1
    13    14    15   ar
    14    16    22    1
    15    16    17   ar
    16    21    22    1
    17    17    19    1
    18    18    13   ar
    19     9    11    1
    20     9    10    1
    21    10     6    1
    22    29    30   ar
    23    31    32   ar
    24    33    28   ar
    25    25     1    1
    26     5     4   ar
    27     5     1   ar
    28    23    24    2
    29     1     2   ar
    30     3     4   ar
    31    13    14   ar
    32    15    16   ar
    33    17    18   ar
    34    28    29   ar
    35    30    31   ar
    36    32    33   ar
    37    19    20    1
    38    25    26    1
@<TRIPOS>MOLECULE
MolPort-005-160-763 CSSS00160037773 MCULE-3804064098 PubChem-45250734
 35 38 0 0 0
SMALL
GASTEIGER

@<TRIPOS>ATOM
      1 C           8.7807   41.3118   11.3223 C.ar    1  UNL1        0.1326
      2 C           8.6791   41.8132   12.6064 C.ar    1  UNL1        0.0565
      3 C           9.8845   41.4412   13.1929 C.ar    1  UNL1        0.1230
      4 N          10.6376   40.7657   12.2988 N.ar    1  UNL1       -0.1666
      5 N           9.9570   40.6896   11.1694 N.ar    1  UNL1       -0.2394
      6 C          10.4414   40.0523    9.9508 C.3     1  UNL1        0.1093
      7 C          11.5082   39.0062   10.2920 C.3     1  UNL1        0.0418
      8 C          12.4815   38.8114    9.1279 C.3     1  UNL1        0.0744
      9 C          12.4369   41.3011    9.0557 C.3     1  UNL1        0.0744
     10 C          10.9263   41.1085    8.9511 C.3     1  UNL1        0.0418
     11 N          13.1687   40.0614    8.7431 N.3     1  UNL1       -0.2688
     12 C          14.5207   40.1091    9.3168 C.3     1  UNL1        0.0992
     13 C          15.4135   41.1476    8.6940 C.ar    1  UNL1       -0.0029
     14 C          16.7318   41.3174    9.1319 C.ar    1  UNL1        0.0004
     15 C          17.5450   42.2917    8.5484 C.ar    1  UNL1        0.0398
     16 C          17.0451   43.1134    7.5249 C.ar    1  UNL1        0.1721
     17 C          15.7184   42.9506    7.1004 C.ar    1  UNL1        0.1675
     18 C          14.9074   41.9740    7.6864 C.ar    1  UNL1        0.0369
     19 O          15.2006   43.7577    6.0950 O.3     1  UNL1       -0.5029
     20 H          15.7383   44.4142    5.6977 H       1  UNL1        0.2923
     21 C          18.1198   44.1073    5.5287 C.3     1  UNL1        0.2526
     22 O          17.8428   44.0922    6.9225 O.3     1  UNL1       -0.4684
     23 C           7.6893   42.5144    9.3573 C.2     1  UNL1        0.2587
     24 O           8.4747   43.4972    9.4151 O.2     1  UNL1       -0.2717
     25 N           7.8033   41.4241   10.2804 N.am    1  UNL1       -0.2673
     26 H           7.1544   40.6891   10.1910 H       1  UNL1        0.1563
     27 C           6.6264   42.4921    8.3048 C.3     1  UNL1        0.2135
     28 C           5.2702   42.2525    8.8954 C.ar    1  UNL1        0.0134
     29 C           4.4155   43.3209    9.2080 C.ar    1  UNL1       -0.0015
     30 C           3.1552   43.0738    9.7602 C.ar    1  UNL1       -0.0002
     31 C           2.7433   41.7599   10.0007 C.ar    1  UNL1       -0.0000
     32 C           3.5911   40.6929    9.6886 C.ar    1  UNL1       -0.0002
     33 C           4.8522   40.9392    9.1372 C.ar    1  UNL1       -0.0015
     34 C           6.8453   43.2740    6.2436 C.3     1  UNL1        0.1751
     35 O           6.6433   43.6779    7.5642 O.3     1  UNL1       -0.3400
@<TRIPOS>BOND
     1    34    35    1
     2    27    35    1
     3    27    23    1
     4    27    28    1
     5    23    25   am
     6     2     3   ar
     7     6     5    1
     8     6     7    1
     9     7     8    1
    10     8    11    1
    11    12    11    1
    12    12    13    1
    13    14    15   ar
    14    16    22    1
    15    16    17   ar
    16    21    22    1
    17    17    19    1
    18    18    13   ar
    19     9    11    1
    20     9    10    1
    21    10     6    1
    22    29    30   ar
    23    31    32   ar
    24    33    28   ar
    25    25     1    1
    26     5     4   ar
    27     5     1   ar
    28    23    24    2
    29     1     2   ar
    30     3     4   ar
    31    13    14   ar
    32    15    16   ar
    33    17    18   ar
    34    28    29   ar
    35    30    31   ar
    36    32    33   ar
    37    19    20    1
    38    25    26    1
@<TRIPOS>MOLECULE
MolPort-005-160-763 CSSS00160037773 MCULE-3804064098 PubChem-45250734
 35 38 0 0 0
SMALL
GASTEIGER

@<TRIPOS>ATOM
      1 C           7.8419   40.5417    7.2346 C.ar    1  UNL1        0.1326
      2 C           7.4775   39.7026    6.1983 C.ar    1  UNL1        0.0565
      3 C           8.6714   39.0744    5.8587 C.ar    1  UNL1        0.1230
      4 N           9.6658   39.5241    6.6535 N.ar    1  UNL1       -0.1666
      5 N           9.1525   40.4163    7.4812 N.ar    1  UNL1       -0.2394
      6 C           9.9048   41.1185    8.5140 C.3     1  UNL1        0.1093
      7 C          11.1878   41.7103    7.9202 C.3     1  UNL1        0.0418
      8 C          12.2775   41.8443    8.9855 C.3     1  UNL1        0.0744
      9 C          11.5399   39.5487    9.6118 C.3     1  UNL1        0.0744
     10 C          10.1606   40.1952    9.7107 C.3     1  UNL1        0.0418
     11 N          12.6165   40.5542    9.6208 N.3     1  UNL1       -0.2688
     12 C          13.8426   39.9933    9.0366 C.3     1  UNL1        0.0992
     13 C          14.7942   41.0283    8.5009 C.ar    1  UNL1       -0.0029
     14 C          16.0499   41.2216    9.0878 C.ar    1  UNL1        0.0004
     15 C          16.9183   42.1924    8.5833 C.ar    1  UNL1        0.0398
     16 C          16.5363   42.9870    7.4900 C.ar    1  UNL1        0.1721
     17 C          15.2707   42.8008    6.9153 C.ar    1  UNL1        0.1675
     18 C          14.4041   41.8279    7.4227 C.ar    1  UNL1        0.0369
     19 O          14.8688   43.5810    5.8382 O.3     1  UNL1       -0.5029
     20 H          15.4442   44.2350    5.4929 H       1  UNL1        0.2923
     21 C          17.8383   43.9459    5.6157 C.3     1  UNL1        0.2526
     22 O          17.3915   43.9616    6.9647 O.3     1  UNL1       -0.4684
     23 C           6.4564   42.6670    7.4847 C.2     1  UNL1        0.2587
     24 O           6.7463   43.0906    6.3346 O.2     1  UNL1       -0.2717
     25 N           6.9796   41.4225    7.9655 N.am    1  UNL1       -0.2673
     26 H           6.7247   41.1491    8.8763 H       1  UNL1        0.1563
     27 C           5.5500   43.4802    8.3536 C.3     1  UNL1        0.2135
     28 C           4.9736   42.6613    9.4684 C.ar    1  UNL1        0.0134
     29 C           5.7961   41.8845   10.2989 C.ar    1  UNL1       -0.0015
     30 C           5.2363   41.1268   11.3316 C.ar    1  UNL1       -0.0002
     31 C           3.8541   41.1429   11.5398 C.ar    1  UNL1       -0.0000
     32 C           3.0318   41.9172   10.7160 C.ar    1  UNL1       -0.0002
     33 C           3.5908   42.6747    9.6821 C.ar    1  UNL1       -0.0015
     34 C           7.5707   44.2359    8.8566 C.3     1  UNL1        0.1751
     35 O           6.2229   44.5984    8.8552 O.3     1  UNL1       -0.3400
@<TRIPOS>BOND
     1    34    35    1
     2    27    35    1
     3    27    23    1
     4    27    28    1
     5    23    25   am
     6     2     3   ar
     7     6     5    1
     8     6     7    1
     9     7     8    1
    10     8    11    1
    11    12    11    1
    12    12    13    1
    13    14    15   ar
    14    16    22    1
    15    16    17   ar
    16    21    22    1
    17    17    19    1
    18    18    13   ar
    19     9    11    1
    20     9    10    1
    21    10     6    1
    22    29    30   ar
    23    31    32   ar
    24    33    28   ar
    25    25     1    1
    26     5     4   ar
    27     5     1   ar
    28    23    24    2
    29     1     2   ar
    30     3     4   ar
    31    13    14   ar
    32    15    16   ar
    33    17    18   ar
    34    28    29   ar
    35    30    31   ar
    36    32    33   ar
    37    19    20    1
    38    25    26    1
@<TRIPOS>MOLECULE
MolPort-005-160-763 CSSS00160037773 MCULE-3804064098 PubChem-45250734
 35 38 0 0 0
SMALL
GASTEIGER

@<TRIPOS>ATOM
      1 C          10.9130   40.0382    5.4559 C.ar    1  UNL1        0.1326
      2 C          10.8428   38.9348    4.6264 C.ar    1  UNL1        0.0565
      3 C           9.5407   38.9817    4.1389 C.ar    1  UNL1        0.1230
      4 N           8.8981   40.0505    4.6562 N.ar    1  UNL1       -0.1666
      5 N           9.7382   40.6817    5.4564 N.ar    1  UNL1       -0.2394
      6 C           9.4259   41.9024    6.1900 C.3     1  UNL1        0.1093
      7 C           9.8659   41.7653    7.6516 C.3     1  UNL1        0.0418
      8 C           9.0156   42.6470    8.5682 C.3     1  UNL1        0.0744
      9 C           7.1330   41.7314    7.2177 C.3     1  UNL1        0.0744
     10 C           7.9422   42.2553    6.0342 C.3     1  UNL1        0.0418
     11 N           7.5747   42.3299    8.4893 N.3     1  UNL1       -0.2688
     12 C           7.1658   41.4847    9.6197 C.3     1  UNL1        0.0992
     13 C           5.7489   41.7113   10.0721 C.ar    1  UNL1       -0.0029
     14 C           5.2608   41.1056   11.2354 C.ar    1  UNL1        0.0004
     15 C           3.9403   41.3199   11.6370 C.ar    1  UNL1        0.0398
     16 C           3.0900   42.1368   10.8738 C.ar    1  UNL1        0.1721
     17 C           3.5787   42.7287    9.7001 C.ar    1  UNL1        0.1675
     18 C           4.9012   42.5123    9.3013 C.ar    1  UNL1        0.0369
     19 O           2.7529   43.5340    8.9255 O.3     1  UNL1       -0.5029
     20 H           1.8656   43.6835    9.1866 H       1  UNL1        0.2923
     21 C           1.3564   42.4081   12.6199 C.3     1  UNL1        0.2526
     22 O           1.7656   42.3698   11.2594 O.3     1  UNL1       -0.4684
     23 C          12.4165   39.9920    7.5142 C.2     1  UNL1        0.2587
     24 O          11.7170   39.1296    8.1083 O.2     1  UNL1       -0.2717
     25 N          12.0514   40.4683    6.2128 N.am    1  UNL1       -0.2673
     26 H          12.6325   41.1495    5.8035 H       1  UNL1        0.1563
     27 C          13.6462   40.5194    8.1831 C.3     1  UNL1        0.2135
     28 C          14.1589   41.7521    7.5025 C.ar    1  UNL1        0.0134
     29 C          13.3322   42.5151    6.6634 C.ar    1  UNL1       -0.0015
     30 C          13.8325   43.6604    6.0372 C.ar    1  UNL1       -0.0002
     31 C          15.1587   44.0488    6.2475 C.ar    1  UNL1       -0.0000
     32 C          15.9846   43.2925    7.0844 C.ar    1  UNL1       -0.0002
     33 C          15.4853   42.1462    7.7104 C.ar    1  UNL1       -0.0015
     34 C          14.2191   39.8623   10.2197 C.3     1  UNL1        0.1751
     35 O          13.4018   40.7650    9.5377 O.3     1  UNL1       -0.3400
@<TRIPOS>BOND
     1    34    35    1
     2    27    35    1
     3    27    23    1
     4    27    28    1
     5    23    25   am
     6     2     3   ar
     7     6     5    1
     8     6     7    1
     9     7     8    1
    10     8    11    1
    11    12    11    1
    12    12    13    1
    13    14    15   ar
    14    16    22    1
    15    16    17   ar
    16    21    22    1
    17    17    19    1
    18    18    13   ar
    19     9    11    1
    20     9    10    1
    21    10     6    1
    22    29    30   ar
    23    31    32   ar
    24    33    28   ar
    25    25     1    1
    26     5     4   ar
    27     5     1   ar
    28    23    24    2
    29     1     2   ar
    30     3     4   ar
    31    13    14   ar
    32    15    16   ar
    33    17    18   ar
    34    28    29   ar
    35    30    31   ar
    36    32    33   ar
    37    19    20    1
    38    25    26    1
@<TRIPOS>MOLECULE
MolPort-005-160-763 CSSS00160037773 MCULE-3804064098 PubChem-45250734
 35 38 0 0 0
SMALL
GASTEIGER

@<TRIPOS>ATOM
      1 C           7.7489   42.7639    8.0802 C.ar    1  UNL1        0.1326
      2 C           6.8785   43.7269    7.6051 C.ar    1  UNL1        0.0565
      3 C           7.1382   44.8245    8.4195 C.ar    1  UNL1        0.1230
      4 N           8.1028   44.5129    9.3112 N.ar    1  UNL1       -0.1666
      5 N           8.4630   43.2599    9.0991 N.ar    1  UNL1       -0.2394
      6 C           9.4988   42.5571    9.8466 C.3     1  UNL1        0.1093
      7 C          10.8839   42.9391    9.3134 C.3     1  UNL1        0.0418
      8 C          11.8950   41.8158    9.5506 C.3     1  UNL1        0.0744
      9 C          10.0429   40.3696    8.7234 C.3     1  UNL1        0.0744
     10 C           9.2386   41.0464    9.8302 C.3     1  UNL1        0.0418
     11 N          11.4929   40.5428    8.9177 N.3     1  UNL1       -0.2688
     12 C          12.2045   40.3464    7.6471 C.3     1  UNL1        0.0992
     13 C          13.2653   41.3778    7.3740 C.ar    1  UNL1       -0.0029
     14 C          14.4968   41.3345    8.0372 C.ar    1  UNL1        0.0004
     15 C          15.4678   42.3045    7.7781 C.ar    1  UNL1        0.0398
     16 C          15.2141   43.3345    6.8575 C.ar    1  UNL1        0.1721
     17 C          13.9725   43.3832    6.2072 C.ar    1  UNL1        0.1675
     18 C          13.0030   42.4103    6.4688 C.ar    1  UNL1        0.0369
     19 O          13.6969   44.3977    5.2988 O.3     1  UNL1       -0.5029
     20 H          14.3418   45.0531    5.1185 H       1  UNL1        0.2923
     21 C          17.5455   44.0080    6.3690 C.3     1  UNL1        0.2526
     22 O          16.1735   44.3137    6.5783 O.3     1  UNL1       -0.4684
     23 C           7.4168   40.9469    6.3231 C.2     1  UNL1        0.2587
     24 O           6.7848   41.7039    5.5397 O.2     1  UNL1       -0.2717
     25 N           7.9012   41.4285    7.5829 N.am    1  UNL1       -0.2673
     26 H           8.3798   40.7869    8.1560 H       1  UNL1        0.1563
     27 C           7.6629   39.5266    5.9233 C.3     1  UNL1        0.2135
     28 C           8.8941   39.3966    5.0790 C.ar    1  UNL1        0.0134
     29 C           9.8855   40.3900    5.0834 C.ar    1  UNL1       -0.0015
     30 C          11.0250   40.2486    4.2861 C.ar    1  UNL1       -0.0002
     31 C          11.1796   39.1149    3.4832 C.ar    1  UNL1       -0.0000
     32 C          10.1952   38.1222    3.4778 C.ar    1  UNL1       -0.0002
     33 C           9.0546   38.2633    4.2742 C.ar    1  UNL1       -0.0015
     34 C           8.9866   38.0752    6.9476 C.3     1  UNL1        0.1751
     35 O           7.7458   38.7056    7.0521 O.3     1  UNL1       -0.3400
@<TRIPOS>BOND
     1    34    35    1
     2    27    35    1
     3    27    23    1
     4    27    28    1
     5    23    25   am
     6     2     3   ar
     7     6     5    1
     8     6     7    1
     9     7     8    1
    10     8    11    1
    11    12    11    1
    12    12    13    1
    13    14    15   ar
    14    16    22    1
    15    16    17   ar
    16    21    22    1
    17    17    19    1
    18    18    13   ar
    19     9    11    1
    20     9    10    1
    21    10     6    1
    22    29    30   ar
    23    31    32   ar
    24    33    28   ar
    25    25     1    1
    26     5     4   ar
    27     5     1   ar
    28    23    24    2
    29     1     2   ar
    30     3     4   ar
    31    13    14   ar
    32    15    16   ar
    33    17    18   ar
    34    28    29   ar
    35    30    31   ar
    36    32    33   ar
    37    19    20    1
    38    25    26    1
@<TRIPOS>MOLECULE
MolPort-005-160-763 CSSS00160037773 MCULE-3804064098 PubChem-45250734
 35 38 0 0 0
SMALL
GASTEIGER

@<TRIPOS>ATOM
      1 C           7.1008   41.8004    9.8139 C.ar    1  UNL1        0.1326
      2 C           5.7970   41.3815   10.0017 C.ar    1  UNL1        0.0565
      3 C           5.7200   41.1768   11.3756 C.ar    1  UNL1        0.1230
      4 N           6.9097   41.4622   11.9467 N.ar    1  UNL1       -0.1666
      5 N           7.7406   41.8355   10.9902 N.ar    1  UNL1       -0.2394
      6 C           9.1224   42.2472   11.2063 C.3     1  UNL1        0.1093
      7 C           9.6569   42.9693    9.9647 C.3     1  UNL1        0.0418
      8 C          11.1756   42.8229    9.8529 C.3     1  UNL1        0.0744
      9 C          10.6954   40.4448   10.4190 C.3     1  UNL1        0.0744
     10 C           9.9790   41.0468   11.6250 C.3     1  UNL1        0.0418
     11 N          11.6098   41.4122    9.7878 N.3     1  UNL1       -0.2688
     12 C          11.8902   41.0180    8.4002 C.3     1  UNL1        0.0992
     13 C          13.0571   41.7397    7.7830 C.ar    1  UNL1       -0.0029
     14 C          14.3660   41.4827    8.2063 C.ar    1  UNL1        0.0004
     15 C          15.4376   42.1674    7.6285 C.ar    1  UNL1        0.0398
     16 C          15.2106   43.1238    6.6252 C.ar    1  UNL1        0.1721
     17 C          13.8960   43.3897    6.2155 C.ar    1  UNL1        0.1675
     18 C          12.8258   42.7022    6.7959 C.ar    1  UNL1        0.0369
     19 O          13.6475   44.3375    5.2305 O.3     1  UNL1       -0.5029
     20 H          14.3598   44.8022    4.8371 H       1  UNL1        0.2923
     21 C          17.5647   43.8890    6.6074 C.3     1  UNL1        0.2526
     22 O          16.2687   43.8179    6.0287 O.3     1  UNL1       -0.4684
     23 C           8.2883   41.2444    7.6277 C.2     1  UNL1        0.2587
     24 O           8.3020   40.0054    7.8538 O.2     1  UNL1       -0.2717
     25 N           7.7130   42.1592    8.5689 N.am    1  UNL1       -0.2673
     26 H           7.7407   43.1164    8.3405 H       1  UNL1        0.1563
     27 C           8.8812   41.7592    6.3545 C.3     1  UNL1        0.2135
     28 C           9.3779   40.6433    5.4864 C.ar    1  UNL1        0.0134
     29 C           8.6415   39.4581    5.3356 C.ar    1  UNL1       -0.0015
     30 C           9.1253   38.4293    4.5221 C.ar    1  UNL1       -0.0002
     31 C          10.3446   38.5805    3.8554 C.ar    1  UNL1       -0.0000
     32 C          11.0799   39.7605    4.0015 C.ar    1  UNL1       -0.0002
     33 C          10.5972   40.7897    4.8157 C.ar    1  UNL1       -0.0015
     34 C           6.7166   41.9657    5.9308 C.3     1  UNL1        0.1751
     35 O           7.9562   42.5500    5.6661 O.3     1  UNL1       -0.3400
@<TRIPOS>BOND
     1    34    35    1
     2    27    35    1
     3    27    23    1
     4    27    28    1
     5    23    25   am
     6     2     3   ar
     7     6     5    1
     8     6     7    1
     9     7     8    1
    10     8    11    1
    11    12    11    1
    12    12    13    1
    13    14    15   ar
    14    16    22    1
    15    16    17   ar
    16    21    22    1
    17    17    19    1
    18    18    13   ar
    19     9    11    1
    20     9    10    1
    21    10     6    1
    22    29    30   ar
    23    31    32   ar
    24    33    28   ar
    25    25     1    1
    26     5     4   ar
    27     5     1   ar
    28    23    24    2
    29     1     2   ar
    30     3     4   ar
    31    13    14   ar
    32    15    16   ar
    33    17    18   ar
    34    28    29   ar
    35    30    31   ar
    36    32    33   ar
    37    19    20    1
    38    25    26    1
@<TRIPOS>MOLECULE
MolPort-005-160-763 CSSS00160037773 MCULE-3804064098 PubChem-45250734
 35 38 0 0 0
SMALL
GASTEIGER

@<TRIPOS>ATOM
      1 C           9.3271   40.7671   10.9755 C.ar    1  UNL1        0.1326
      2 C           9.1538   41.1178   12.3012 C.ar    1  UNL1        0.0565
      3 C           8.1805   42.1103   12.2463 C.ar    1  UNL1        0.1230
      4 N           7.8133   42.3188   10.9639 N.ar    1  UNL1       -0.1666
      5 N           8.5176   41.5019   10.2015 N.ar    1  UNL1       -0.2394
      6 C           8.3948   41.4084    8.7517 C.3     1  UNL1        0.1093
      7 C           8.9175   40.0522    8.2655 C.3     1  UNL1        0.0418
      8 C           9.4302   40.1427    6.8270 C.3     1  UNL1        0.0744
      9 C          10.5032   42.2350    7.6498 C.3     1  UNL1        0.0744
     10 C           9.0845   42.6005    8.0785 C.3     1  UNL1        0.0418
     11 N          10.5113   41.1369    6.6678 N.3     1  UNL1       -0.2688
     12 C          11.8248   40.4783    6.6505 C.3     1  UNL1        0.0992
     13 C          12.9878   41.4303    6.7210 C.ar    1  UNL1       -0.0029
     14 C          13.9689   41.2936    7.7095 C.ar    1  UNL1        0.0004
     15 C          15.0378   42.1909    7.7660 C.ar    1  UNL1        0.0398
     16 C          15.1328   43.2410    6.8380 C.ar    1  UNL1        0.1721
     17 C          14.1387   43.3837    5.8591 C.ar    1  UNL1        0.1675
     18 C          13.0703   42.4834    5.8054 C.ar    1  UNL1        0.0369
     19 O          14.2082   44.4198    4.9361 O.3     1  UNL1       -0.5029
     20 H          14.9213   45.0268    4.9660 H       1  UNL1        0.2923
     21 C          17.5429   43.7643    6.6251 C.3     1  UNL1        0.2526
     22 O          16.1971   44.1483    6.8722 O.3     1  UNL1       -0.4684
     23 C          11.6514   39.8211   10.5262 C.2     1  UNL1        0.2587
     24 O          12.2426   40.8015   11.0511 O.2     1  UNL1       -0.2717
     25 N          10.2206   39.7701   10.4642 N.am    1  UNL1       -0.2673
     26 H           9.8167   38.9823   10.0334 H       1  UNL1        0.1563
     27 C          12.4626   38.6969    9.9643 C.3     1  UNL1        0.2135
     28 C          13.8871   38.7603   10.4251 C.ar    1  UNL1        0.0134
     29 C          14.9232   39.0896    9.5376 C.ar    1  UNL1       -0.0015
     30 C          16.2452   39.1409    9.9892 C.ar    1  UNL1       -0.0002
     31 C          16.5373   38.8653   11.3281 C.ar    1  UNL1       -0.0000
     32 C          15.5075   38.5390   12.2157 C.ar    1  UNL1       -0.0002
     33 C          14.1851   38.4866   11.7646 C.ar    1  UNL1       -0.0015
     34 C          12.4528   36.5556    9.3962 C.3     1  UNL1        0.1751
     35 O          11.8888   37.4648   10.2925 O.3     1  UNL1       -0.3400
@<TRIPOS>BOND
     1    34    35    1
     2    27    35    1
     3    27    23    1
     4    27    28    1
     5    23    25   am
     6     2     3   ar
     7     6     5    1
     8     6     7    1
     9     7     8    1
    10     8    11    1
    11    12    11    1
    12    12    13    1
    13    14    15   ar
    14    16    22    1
    15    16    17   ar
    16    21    22    1
    17    17    19    1
    18    18    13   ar
    19     9    11    1
    20     9    10    1
    21    10     6    1
    22    29    30   ar
    23    31    32   ar
    24    33    28   ar
    25    25     1    1
    26     5     4   ar
    27     5     1   ar
    28    23    24    2
    29     1     2   ar
    30     3     4   ar
    31    13    14   ar
    32    15    16   ar
    33    17    18   ar
    34    28    29   ar
    35    30    31   ar
    36    32    33   ar
    37    19    20    1
    38    25    26    1
@<TRIPOS>MOLECULE
MolPort-005-160-763 CSSS00160037773 MCULE-3804064098 PubChem-45250734
 35 38 0 0 0
SMALL
GASTEIGER

@<TRIPOS>ATOM
      1 C          12.7966   41.2509    8.7122 C.ar    1  UNL1        0.1326
      2 C          13.2989   41.4600    7.4415 C.ar    1  UNL1        0.0565
      3 C          12.5902   42.5705    6.9946 C.ar    1  UNL1        0.1230
      4 N          11.7302   42.9786    7.9521 N.ar    1  UNL1       -0.1666
      5 N          11.8609   42.1690    8.9876 N.ar    1  UNL1       -0.2394
      6 C          11.1172   42.2923   10.2355 C.3     1  UNL1        0.1093
      7 C          10.2458   41.0507   10.4539 C.3     1  UNL1        0.0418
      8 C           9.0170   41.3821   11.3029 C.3     1  UNL1        0.0744
      9 C           8.8815   43.3699    9.8075 C.3     1  UNL1        0.0744
     10 C          10.3216   43.6025   10.2569 C.3     1  UNL1        0.0418
     11 N           8.1745   42.4359   10.7008 N.3     1  UNL1       -0.2688
     12 C           7.0189   41.8465   10.0105 C.3     1  UNL1        0.0992
     13 C           7.3348   41.3014    8.6443 C.ar    1  UNL1       -0.0029
     14 C           8.6263   41.3967    8.1139 C.ar    1  UNL1        0.0004
     15 C           8.9009   40.8928    6.8404 C.ar    1  UNL1        0.0398
     16 C           7.8833   40.2945    6.0793 C.ar    1  UNL1        0.1721
     17 C           6.5868   40.2157    6.6083 C.ar    1  UNL1        0.1675
     18 C           6.3157   40.7209    7.8835 C.ar    1  UNL1        0.0369
     19 O           5.5631   39.6354    5.8698 O.3     1  UNL1       -0.5029
     20 H           5.7374   39.2947    5.0145 H       1  UNL1        0.2923
     21 C           9.4181   39.3139    4.4030 C.3     1  UNL1        0.2526
     22 O           8.1362   39.7783    4.8039 O.3     1  UNL1       -0.4684
     23 C          12.8718   38.8328    9.5162 C.2     1  UNL1        0.2587
     24 O          12.1757   38.4052    8.5577 O.2     1  UNL1       -0.2717
     25 N          13.1931   40.2248    9.6306 N.am    1  UNL1       -0.2673
     26 H          13.7326   40.4997   10.4068 H       1  UNL1        0.1563
     27 C          13.3685   37.8661   10.5441 C.3     1  UNL1        0.2135
     28 C          13.9149   36.6218    9.9126 C.ar    1  UNL1        0.0134
     29 C          15.1013   36.6488    9.1632 C.ar    1  UNL1       -0.0015
     30 C          15.5914   35.4761    8.5814 C.ar    1  UNL1       -0.0002
     31 C          14.9003   34.2724    8.7468 C.ar    1  UNL1       -0.0000
     32 C          13.7193   34.2411    9.4944 C.ar    1  UNL1       -0.0002
     33 C          13.2278   35.4139   10.0759 C.ar    1  UNL1       -0.0015
     34 C          15.4378   38.6570   10.5391 C.3     1  UNL1        0.1751
     35 O          14.3273   38.4695   11.3635 O.3     1  UNL1       -0.3400
@<TRIPOS>BOND
     1    34    35    1
     2    27    35    1
     3    27    23    1
     4    27    28    1
     5    23    25   am
     6     2     3   ar
     7     6     5    1
     8     6     7    1
     9     7     8    1
    10     8    11    1
    11    12    11    1
    12    12    13    1
    13    14    15   ar
    14    16    22    1
    15    16    17   ar
    16    21    22    1
    17    17    19    1
    18    18    13   ar
    19     9    11    1
    20     9    10    1
    21    10     6    1
    22    29    30   ar
    23    31    32   ar
    24    33    28   ar
    25    25     1    1
    26     5     4   ar
    27     5     1   ar
    28    23    24    2
    29     1     2   ar
    30     3     4   ar
    31    13    14   ar
    32    15    16   ar
    33    17    18   ar
    34    28    29   ar
    35    30    31   ar
    36    32    33   ar
    37    19    20    1
    38    25    26    1
@<TRIPOS>MOLECULE
MolPort-005-160-763 CSSS00160037773 MCULE-3804064098 PubChem-45250734
 35 38 0 0 0
SMALL
GASTEIGER

@<TRIPOS>ATOM
      1 C          13.8998   41.1570    8.3949 C.ar    1  UNL1        0.1326
      2 C          14.6392   41.9658    7.5524 C.ar    1  UNL1        0.0565
      3 C          13.6715   42.7365    6.9160 C.ar    1  UNL1        0.1230
      4 N          12.4459   42.3930    7.3662 N.ar    1  UNL1       -0.1666
      5 N          12.5958   41.4317    8.2596 N.ar    1  UNL1       -0.2394
      6 C          11.5035   40.8046    8.9940 C.3     1  UNL1        0.1093
      7 C          10.3175   40.5497    8.0575 C.3     1  UNL1        0.0418
      8 C           8.9969   40.5425    8.8298 C.3     1  UNL1        0.0744
      9 C           9.9591   42.5661    9.9186 C.3     1  UNL1        0.0744
     10 C          11.1354   41.6425   10.2239 C.3     1  UNL1        0.0418
     11 N           8.7505   41.8082    9.5510 N.3     1  UNL1       -0.2688
     12 C           7.8220   42.6631    8.7984 C.3     1  UNL1        0.0992
     13 C           6.4060   42.6235    9.3053 C.ar    1  UNL1       -0.0029
     14 C           6.0568   41.8230   10.3988 C.ar    1  UNL1        0.0004
     15 C           4.7359   41.7914   10.8518 C.ar    1  UNL1        0.0398
     16 C           3.7470   42.5550   10.2099 C.ar    1  UNL1        0.1721
     17 C           4.0985   43.3432    9.1045 C.ar    1  UNL1        0.1675
     18 C           5.4218   43.3727    8.6540 C.ar    1  UNL1        0.0369
     19 O           3.1351   44.1003    8.4495 O.3     1  UNL1       -0.5029
     20 H           2.2463   44.0854    8.7458 H       1  UNL1        0.2923
     21 C           2.0396   42.0781   11.9377 C.3     1  UNL1        0.2526
     22 O           2.4189   42.5430   10.6494 O.3     1  UNL1       -0.4684
     23 C          14.2965   38.7487    9.1311 C.2     1  UNL1        0.2587
     24 O          13.6991   38.2587    8.1365 O.2     1  UNL1       -0.2717
     25 N          14.4108   40.1676    9.2969 N.am    1  UNL1       -0.2673
     26 H          14.8809   40.4904   10.0995 H       1  UNL1        0.1563
     27 C          14.8946   37.8287   10.1478 C.3     1  UNL1        0.2135
     28 C          16.3921   37.8765   10.1218 C.ar    1  UNL1        0.0134
     29 C          17.1319   37.0117    9.3005 C.ar    1  UNL1       -0.0015
     30 C          18.5284   37.0727    9.2940 C.ar    1  UNL1       -0.0002
     31 C          19.1912   37.9979   10.1056 C.ar    1  UNL1       -0.0000
     32 C          18.4576   38.8625   10.9234 C.ar    1  UNL1       -0.0002
     33 C          17.0607   38.8015   10.9313 C.ar    1  UNL1       -0.0015
     34 C          13.0945   38.5455   11.2219 C.3     1  UNL1        0.1751
     35 O          14.4102   38.1263   11.4251 O.3     1  UNL1       -0.3400
@<TRIPOS>BOND
     1    34    35    1
     2    27    35    1
     3    27    23    1
     4    27    28    1
     5    23    25   am
     6     2     3   ar
     7     6     5    1
     8     6     7    1
     9     7     8    1
    10     8    11    1
    11    12    11    1
    12    12    13    1
    13    14    15   ar
    14    16    22    1
    15    16    17   ar
    16    21    22    1
    17    17    19    1
    18    18    13   ar
    19     9    11    1
    20     9    10    1
    21    10     6    1
    22    29    30   ar
    23    31    32   ar
    24    33    28   ar
    25    25     1    1
    26     5     4   ar
    27     5     1   ar
    28    23    24    2
    29     1     2   ar
    30     3     4   ar
    31    13    14   ar
    32    15    16   ar
    33    17    18   ar
    34    28    29   ar
    35    30    31   ar
    36    32    33   ar
    37    19    20    1
    38    25    26    1
@<TRIPOS>MOLECULE
MolPort-005-160-763 CSSS00160037773 MCULE-3804064098 PubChem-45250734
 35 38 0 0 0
SMALL
GASTEIGER

@<TRIPOS>ATOM
      1 C          13.7163   41.5427    7.6668 C.ar    1  UNL1        0.1326
      2 C          14.6078   42.4970    7.2138 C.ar    1  UNL1        0.0565
      3 C          13.9678   43.0317    6.1003 C.ar    1  UNL1        0.1230
      4 N          12.7763   42.4222    5.9224 N.ar    1  UNL1       -0.1666
      5 N          12.6358   41.5185    6.8753 N.ar    1  UNL1       -0.2394
      6 C          11.4673   40.6623    7.0403 C.3     1  UNL1        0.1093
      7 C          10.3996   41.0228    6.0017 C.3     1  UNL1        0.0418
      8 C           8.9979   40.6815    6.5108 C.3     1  UNL1        0.0744
      9 C           9.8197   41.7403    8.6107 C.3     1  UNL1        0.0744
     10 C          10.9553   40.7282    8.4838 C.3     1  UNL1        0.0418
     11 N           8.6648   41.3734    7.7730 N.3     1  UNL1       -0.2688
     12 C           7.8278   42.5530    7.5139 C.3     1  UNL1        0.0992
     13 C           6.4886   42.5155    8.1985 C.ar    1  UNL1       -0.0029
     14 C           6.0508   41.3610    8.8574 C.ar    1  UNL1        0.0004
     15 C           4.8012   41.3402    9.4810 C.ar    1  UNL1        0.0398
     16 C           3.9712   42.4727    9.4454 C.ar    1  UNL1        0.1721
     17 C           4.4072   43.6220    8.7701 C.ar    1  UNL1        0.1675
     18 C           5.6588   43.6394    8.1473 C.ar    1  UNL1        0.0369
     19 O           3.5993   44.7509    8.7153 O.3     1  UNL1       -0.5029
     20 H           2.7592   44.7465    9.1304 H       1  UNL1        0.2923
     21 C           2.5169   42.0078   11.3938 C.3     1  UNL1        0.2526
     22 O           2.7181   42.4765   10.0673 O.3     1  UNL1       -0.4684
     23 C          15.1211   40.1411    9.2670 C.2     1  UNL1        0.2587
     24 O          16.1980   40.3727    8.6564 O.2     1  UNL1       -0.2717
     25 N          13.8803   40.6925    8.8086 N.am    1  UNL1       -0.2673
     26 H          13.0710   40.4678    9.3223 H       1  UNL1        0.1563
     27 C          15.1475   39.2788   10.4891 C.3     1  UNL1        0.2135
     28 C          14.2845   38.0646   10.3263 C.ar    1  UNL1        0.0134
     29 C          14.8060   36.8668    9.8135 C.ar    1  UNL1       -0.0015
     30 C          13.9818   35.7471    9.6684 C.ar    1  UNL1       -0.0002
     31 C          12.6351   35.8185   10.0361 C.ar    1  UNL1       -0.0000
     32 C          12.1125   37.0093   10.5494 C.ar    1  UNL1       -0.0002
     33 C          12.9360   38.1301   10.6939 C.ar    1  UNL1       -0.0015
     34 C          17.2277   40.0406   10.4986 C.3     1  UNL1        0.1751
     35 O          16.4600   38.9164   10.8066 O.3     1  UNL1       -0.3400
@<TRIPOS>BOND
     1    34    35    1
     2    27    35    1
     3    27    23    1
     4    27    28    1
     5    23    25   am
     6     2     3   ar
     7     6     5    1
     8     6     7    1
     9     7     8    1
    10     8    11    1
    11    12    11    1
    12    12    13    1
    13    14    15   ar
    14    16    22    1
    15    16    17   ar
    16    21    22    1
    17    17    19    1
    18    18    13   ar
    19     9    11    1
    20     9    10    1
    21    10     6    1
    22    29    30   ar
    23    31    32   ar
    24    33    28   ar
    25    25     1    1
    26     5     4   ar
    27     5     1   ar
    28    23    24    2
    29     1     2   ar
    30     3     4   ar
    31    13    14   ar
    32    15    16   ar
    33    17    18   ar
    34    28    29   ar
    35    30    31   ar
    36    32    33   ar
    37    19    20    1
    38    25    26    1
