@<TRIPOS>MOLECULE
MolPort-009-741-553 36709122 CSSS03437049413 MCULE-8154873311 PubChem-45503550 ZINC000036709122 ZINC36709122
 25 26 0 0 0
SMALL
GASTEIGER

@<TRIPOS>ATOM
      1 C          10.7082   41.8202    6.3998 C.2     1  UNL1        0.3115
      2 O          10.8156   41.5126    7.6184 O.2     1  UNL1       -0.2520
      3 N          11.8332   42.3224    5.6735 N.am    1  UNL1       -0.2231
      4 N           9.4605   41.6510    5.7200 N.am    1  UNL1       -0.2655
      5 H          11.7083   42.5301    4.7193 H       1  UNL1        0.1608
      6 H           9.4392   41.8067    4.7481 H       1  UNL1        0.1565
      7 C           8.2408   41.2693    6.3662 C.ar    1  UNL1        0.0868
      8 C           7.7013   42.1446    7.3151 C.ar    1  UNL1        0.0292
      9 C           6.4675   41.8761    7.9099 C.ar    1  UNL1        0.0591
     10 C           5.7542   40.7329    7.5496 C.ar    1  UNL1        0.0146
     11 C           6.2935   39.8376    6.6240 C.ar    1  UNL1        0.0391
     12 C           7.5466   40.0733    6.0468 C.ar    1  UNL1        0.1521
     13 CL          5.8015   42.9896    9.0842 Cl      1  UNL1       -0.0822
     14 C           9.4493   38.8370    5.0450 C.3     1  UNL1        0.2525
     15 O           8.0592   39.0898    5.1932 O.3     1  UNL1       -0.4702
     16 C          14.9533   43.4460    6.7377 C.ar    1  UNL1        0.1984
     17 C          14.9045   42.2071    7.3487 C.ar    1  UNL1        0.2085
     18 C          13.1275   42.5429    6.2404 C.ar    1  UNL1        0.2964
     19 O          13.7508   41.6818    7.0113 O.2     1  UNL1       -0.4202
     20 N          13.8297   43.6707    6.0306 N.ar    1  UNL1       -0.1877
     21 C          16.0614   44.4020    6.8295 C.2     1  UNL1        0.3625
     22 O          16.2917   45.1933    5.8743 O.2     1  UNL1       -0.2431
     23 O          16.8537   44.4273    7.9787 O.3     1  UNL1       -0.4443
     24 C          18.1080   42.3847    7.9629 C.3     1  UNL1        0.0513
     25 C          18.1708   43.8974    7.9940 C.3     1  UNL1        0.2089
@<TRIPOS>BOND
     1    24    25    1
     2    25    23    1
     3    21    23    1
     4    21    16    1
     5    16    20   ar
     6    17    19   ar
     7    18    19   ar
     8    18     3    1
     9     1     4   am
    10     8     9   ar
    11     9    13    1
    12    10    11   ar
    13    12    15    1
    14    12     7   ar
    15    14    15    1
    16     3     1   am
    17     4     7    1
    18    21    22    2
    19    16    17   ar
    20    18    20   ar
    21     1     2    2
    22     7     8   ar
    23     9    10   ar
    24    11    12   ar
    25     3     5    1
    26     4     6    1
@<TRIPOS>MOLECULE
MolPort-009-741-553 36709122 CSSS03437049413 MCULE-8154873311 PubChem-45503550 ZINC000036709122 ZINC36709122
 25 26 0 0 0
SMALL
GASTEIGER

@<TRIPOS>ATOM
      1 C          12.1112   42.2771    6.2118 C.2     1  UNL1        0.3115
      2 O          12.3536   41.6345    7.2698 O.2     1  UNL1       -0.2520
      3 N          13.0818   43.1747    5.6662 N.am    1  UNL1       -0.2231
      4 N          10.8658   42.1006    5.5295 N.am    1  UNL1       -0.2655
      5 H          12.8574   43.6395    4.8278 H       1  UNL1        0.1608
      6 H          10.7509   42.5410    4.6565 H       1  UNL1        0.1565
      7 C           9.7762   41.3228    6.0382 C.ar    1  UNL1        0.0868
      8 C           9.2738   41.6489    7.3026 C.ar    1  UNL1        0.0292
      9 C           8.1530   40.9924    7.8135 C.ar    1  UNL1        0.0591
     10 C           7.5152   40.0102    7.0560 C.ar    1  UNL1        0.0146
     11 C           8.0222   39.6564    5.8042 C.ar    1  UNL1        0.0391
     12 C           9.1673   40.2789    5.2941 C.ar    1  UNL1        0.1521
     13 CL          7.5300   41.4235    9.3910 Cl      1  UNL1       -0.0822
     14 C          10.7404   38.8894    3.9724 C.3     1  UNL1        0.2525
     15 O           9.6653   39.8125    4.0720 O.3     1  UNL1       -0.4702
     16 C          16.1058   43.2302    7.3930 C.ar    1  UNL1        0.1984
     17 C          16.1614   44.4465    6.7387 C.ar    1  UNL1        0.2085
     18 C          14.3564   43.4424    6.2569 C.ar    1  UNL1        0.2964
     19 O          15.0522   44.5354    6.0440 O.2     1  UNL1       -0.4202
     20 N          14.9635   42.5830    7.0947 N.ar    1  UNL1       -0.1877
     21 C          17.1329   42.6949    8.2923 C.2     1  UNL1        0.3625
     22 O          17.8863   43.4823    8.9280 O.2     1  UNL1       -0.2431
     23 O          17.2669   41.3129    8.4370 O.3     1  UNL1       -0.4443
     24 C          15.5664   40.0345    9.5412 C.3     1  UNL1        0.0513
     25 C          16.9453   40.6506    9.6510 C.3     1  UNL1        0.2089
@<TRIPOS>BOND
     1    24    25    1
     2    25    23    1
     3    21    23    1
     4    21    16    1
     5    16    20   ar
     6    17    19   ar
     7    18    19   ar
     8    18     3    1
     9     1     4   am
    10     8     9   ar
    11     9    13    1
    12    10    11   ar
    13    12    15    1
    14    12     7   ar
    15    14    15    1
    16     3     1   am
    17     4     7    1
    18    21    22    2
    19    16    17   ar
    20    18    20   ar
    21     1     2    2
    22     7     8   ar
    23     9    10   ar
    24    11    12   ar
    25     3     5    1
    26     4     6    1
@<TRIPOS>MOLECULE
MolPort-009-741-553 36709122 CSSS03437049413 MCULE-8154873311 PubChem-45503550 ZINC000036709122 ZINC36709122
 25 26 0 0 0
SMALL
GASTEIGER

@<TRIPOS>ATOM
      1 C          11.4185   41.9730    8.4473 C.2     1  UNL1        0.3115
      2 O          11.4206   43.1090    8.9956 O.2     1  UNL1       -0.2520
      3 N          12.3190   41.6799    7.3755 N.am    1  UNL1       -0.2231
      4 N          10.5266   40.9522    8.9054 N.am    1  UNL1       -0.2655
      5 H          12.2962   40.7738    6.9914 H       1  UNL1        0.1608
      6 H          10.6211   40.0502    8.5222 H       1  UNL1        0.1565
      7 C           9.5049   41.1616    9.8868 C.ar    1  UNL1        0.0868
      8 C           9.8554   41.0291   11.2348 C.ar    1  UNL1        0.0292
      9 C           8.9311   41.3132   12.2413 C.ar    1  UNL1        0.0591
     10 C           7.6481   41.7466   11.9071 C.ar    1  UNL1        0.0146
     11 C           7.2770   41.8574   10.5658 C.ar    1  UNL1        0.0391
     12 C           8.1804   41.5400    9.5449 C.ar    1  UNL1        0.1521
     13 CL          9.3917   41.1555   13.9222 Cl      1  UNL1       -0.0822
     14 C           7.8671   42.7314    7.3921 C.3     1  UNL1        0.2525
     15 O           7.7104   41.5933    8.2276 O.3     1  UNL1       -0.4702
     16 C          15.0249   43.6645    6.4429 C.ar    1  UNL1        0.1984
     17 C          14.0319   44.1891    5.6371 C.ar    1  UNL1        0.2085
     18 C          13.2502   42.6150    6.8244 C.ar    1  UNL1        0.2964
     19 O          12.9458   43.5053    5.9085 O.2     1  UNL1       -0.4202
     20 N          14.5402   42.6635    7.2019 N.ar    1  UNL1       -0.1877
     21 C          16.4193   44.1159    6.4858 C.2     1  UNL1        0.3625
     22 O          17.0748   44.2395    5.4150 O.2     1  UNL1       -0.2431
     23 O          17.0100   44.4062    7.7170 O.3     1  UNL1       -0.4443
     24 C          17.6269   42.2741    8.6219 C.3     1  UNL1        0.0513
     25 C          18.1039   43.6542    8.2205 C.3     1  UNL1        0.2089
@<TRIPOS>BOND
     1    24    25    1
     2    25    23    1
     3    21    23    1
     4    21    16    1
     5    16    20   ar
     6    17    19   ar
     7    18    19   ar
     8    18     3    1
     9     1     4   am
    10     8     9   ar
    11     9    13    1
    12    10    11   ar
    13    12    15    1
    14    12     7   ar
    15    14    15    1
    16     3     1   am
    17     4     7    1
    18    21    22    2
    19    16    17   ar
    20    18    20   ar
    21     1     2    2
    22     7     8   ar
    23     9    10   ar
    24    11    12   ar
    25     3     5    1
    26     4     6    1
@<TRIPOS>MOLECULE
MolPort-009-741-553 36709122 CSSS03437049413 MCULE-8154873311 PubChem-45503550 ZINC000036709122 ZINC36709122
 25 26 0 0 0
SMALL
GASTEIGER

@<TRIPOS>ATOM
      1 C          11.6178   42.1765    8.2288 C.2     1  UNL1        0.3115
      2 O          11.7710   43.2098    8.9358 O.2     1  UNL1       -0.2520
      3 N          12.4454   41.9472    7.0851 N.am    1  UNL1       -0.2231
      4 N          10.6243   41.2064    8.5743 N.am    1  UNL1       -0.2655
      5 H          12.3038   41.1173    6.5747 H       1  UNL1        0.1608
      6 H          10.5996   40.3672    8.0600 H       1  UNL1        0.1565
      7 C           9.6638   41.3808    9.6220 C.ar    1  UNL1        0.0868
      8 C           8.3582   41.7313    9.2611 C.ar    1  UNL1        0.0292
      9 C           7.3538   41.8227   10.2260 C.ar    1  UNL1        0.0591
     10 C           7.6448   41.5504   11.5627 C.ar    1  UNL1        0.0146
     11 C           8.9491   41.2258   11.9401 C.ar    1  UNL1        0.0391
     12 C           9.9753   41.1670   10.9901 C.ar    1  UNL1        0.1521
     13 CL          5.7233   42.2484    9.7542 Cl      1  UNL1       -0.0822
     14 C          12.0549   39.8156   11.0231 C.3     1  UNL1        0.2525
     15 O          11.2719   40.9194   11.4551 O.3     1  UNL1       -0.4702
     16 C          15.3419   43.7214    6.3153 C.ar    1  UNL1        0.1984
     17 C          14.3917   44.4863    5.6650 C.ar    1  UNL1        0.2085
     18 C          13.4650   42.8425    6.6333 C.ar    1  UNL1        0.2964
     19 O          13.2393   43.9015    5.8904 O.2     1  UNL1       -0.4202
     20 N          14.7650   42.6740    6.9342 N.ar    1  UNL1       -0.1877
     21 C          16.7831   43.9901    6.3439 C.2     1  UNL1        0.3625
     22 O          17.4658   43.8793    5.2888 O.2     1  UNL1       -0.2431
     23 O          17.3879   44.3682    7.5440 O.3     1  UNL1       -0.4443
     24 C          17.9628   42.1381    8.2087 C.3     1  UNL1        0.0513
     25 C          17.4553   43.4919    8.6591 C.3     1  UNL1        0.2089
@<TRIPOS>BOND
     1    24    25    1
     2    25    23    1
     3    21    23    1
     4    21    16    1
     5    16    20   ar
     6    17    19   ar
     7    18    19   ar
     8    18     3    1
     9     1     4   am
    10     8     9   ar
    11     9    13    1
    12    10    11   ar
    13    12    15    1
    14    12     7   ar
    15    14    15    1
    16     3     1   am
    17     4     7    1
    18    21    22    2
    19    16    17   ar
    20    18    20   ar
    21     1     2    2
    22     7     8   ar
    23     9    10   ar
    24    11    12   ar
    25     3     5    1
    26     4     6    1
@<TRIPOS>MOLECULE
MolPort-009-741-553 36709122 CSSS03437049413 MCULE-8154873311 PubChem-45503550 ZINC000036709122 ZINC36709122
 25 26 0 0 0
SMALL
GASTEIGER

@<TRIPOS>ATOM
      1 C           8.4413   42.2973    9.2653 C.2     1  UNL1        0.3115
      2 O           8.1006   41.8545    8.1345 O.2     1  UNL1       -0.2520
      3 N           9.8223   42.4749    9.5921 N.am    1  UNL1       -0.2231
      4 N           7.4469   42.6487   10.2325 N.am    1  UNL1       -0.2655
      5 H          10.0409   42.8424   10.4789 H       1  UNL1        0.1608
      6 H           7.7447   43.0831   11.0642 H       1  UNL1        0.1565
      7 C           6.0453   42.4073   10.0650 C.ar    1  UNL1        0.0868
      8 C           5.4981   41.2759   10.6799 C.ar    1  UNL1        0.0292
      9 C           4.1238   41.0365   10.6346 C.ar    1  UNL1        0.0591
     10 C           3.2807   41.9367    9.9832 C.ar    1  UNL1        0.0146
     11 C           3.8167   43.0554    9.3426 C.ar    1  UNL1        0.0391
     12 C           5.1967   43.2895    9.3467 C.ar    1  UNL1        0.1521
     13 CL          3.4553   39.6236   11.4216 Cl      1  UNL1       -0.0822
     14 C           5.7813   44.3782    7.1961 C.3     1  UNL1        0.2525
     15 O           5.6678   44.3837    8.6121 O.3     1  UNL1       -0.4702
     16 C          12.6564   42.3230    7.5735 C.ar    1  UNL1        0.1984
     17 C          12.1620   41.0415    7.4187 C.ar    1  UNL1        0.2085
     18 C          10.9071   42.1543    8.7170 C.ar    1  UNL1        0.2964
     19 O          11.0734   40.9825    8.1483 O.2     1  UNL1       -0.4202
     20 N          11.8675   43.0396    8.3963 N.ar    1  UNL1       -0.1877
     21 C          13.8682   42.8544    6.9415 C.2     1  UNL1        0.3625
     22 O          13.8332   43.9674    6.3485 O.2     1  UNL1       -0.2431
     23 O          15.0539   42.1202    7.0032 O.3     1  UNL1       -0.4443
     24 C          15.6599   40.8826    8.9645 C.3     1  UNL1        0.0513
     25 C          15.8895   42.1390    8.1510 C.3     1  UNL1        0.2089
@<TRIPOS>BOND
     1    24    25    1
     2    25    23    1
     3    21    23    1
     4    21    16    1
     5    16    20   ar
     6    17    19   ar
     7    18    19   ar
     8    18     3    1
     9     1     4   am
    10     8     9   ar
    11     9    13    1
    12    10    11   ar
    13    12    15    1
    14    12     7   ar
    15    14    15    1
    16     3     1   am
    17     4     7    1
    18    21    22    2
    19    16    17   ar
    20    18    20   ar
    21     1     2    2
    22     7     8   ar
    23     9    10   ar
    24    11    12   ar
    25     3     5    1
    26     4     6    1
@<TRIPOS>MOLECULE
MolPort-009-741-553 36709122 CSSS03437049413 MCULE-8154873311 PubChem-45503550 ZINC000036709122 ZINC36709122
 25 26 0 0 0
SMALL
GASTEIGER

@<TRIPOS>ATOM
      1 C          12.0965   41.6361    9.1352 C.2     1  UNL1        0.3115
      2 O          11.5573   42.7472    8.8785 O.2     1  UNL1       -0.2520
      3 N          11.4858   40.7248   10.0529 N.am    1  UNL1       -0.2231
      4 N          13.3200   41.2624    8.4942 N.am    1  UNL1       -0.2655
      5 H          11.9316   39.8608   10.2073 H       1  UNL1        0.1608
      6 H          13.6590   40.3500    8.6421 H       1  UNL1        0.1565
      7 C          14.0817   42.1337    7.6506 C.ar    1  UNL1        0.0868
      8 C          15.3874   42.4477    8.0431 C.ar    1  UNL1        0.0292
      9 C          16.2133   43.2132    7.2184 C.ar    1  UNL1        0.0591
     10 C          15.7431   43.6612    5.9840 C.ar    1  UNL1        0.0146
     11 C          14.4335   43.3776    5.5921 C.ar    1  UNL1        0.0391
     12 C          13.5807   42.6434    6.4244 C.ar    1  UNL1        0.1521
     13 CL         17.8485   43.5841    7.7193 Cl      1  UNL1       -0.0822
     14 C          11.7421   41.2293    5.5455 C.3     1  UNL1        0.2525
     15 O          12.2573   42.4719    6.0024 O.3     1  UNL1       -0.4702
     16 C           8.2543   41.3880   11.1697 C.ar    1  UNL1        0.1984
     17 C           8.9286   41.2990   12.3730 C.ar    1  UNL1        0.2085
     18 C          10.2709   40.9847   10.7612 C.ar    1  UNL1        0.2964
     19 O          10.1797   41.0469   12.0696 O.2     1  UNL1       -0.4202
     20 N           9.0967   41.1901   10.1382 N.ar    1  UNL1       -0.1877
     21 C           6.8222   41.6594   11.0097 C.2     1  UNL1        0.3625
     22 O           5.9962   41.1968   11.8436 O.2     1  UNL1       -0.2431
     23 O           6.3853   42.4311    9.9314 O.3     1  UNL1       -0.4443
     24 C           4.2524   43.2390    9.1943 C.3     1  UNL1        0.0513
     25 C           5.2323   42.0846    9.1789 C.3     1  UNL1        0.2089
@<TRIPOS>BOND
     1    24    25    1
     2    25    23    1
     3    21    23    1
     4    21    16    1
     5    16    20   ar
     6    17    19   ar
     7    18    19   ar
     8    18     3    1
     9     1     4   am
    10     8     9   ar
    11     9    13    1
    12    10    11   ar
    13    12    15    1
    14    12     7   ar
    15    14    15    1
    16     3     1   am
    17     4     7    1
    18    21    22    2
    19    16    17   ar
    20    18    20   ar
    21     1     2    2
    22     7     8   ar
    23     9    10   ar
    24    11    12   ar
    25     3     5    1
    26     4     6    1
@<TRIPOS>MOLECULE
MolPort-009-741-553 36709122 CSSS03437049413 MCULE-8154873311 PubChem-45503550 ZINC000036709122 ZINC36709122
 25 26 0 0 0
SMALL
GASTEIGER

@<TRIPOS>ATOM
      1 C          11.7052   42.2047    6.8395 C.2     1  UNL1        0.3115
      2 O          11.6516   42.2382    5.5797 O.2     1  UNL1       -0.2520
      3 N          12.7916   42.8181    7.5388 N.am    1  UNL1       -0.2231
      4 N          10.6659   41.5684    7.5895 N.am    1  UNL1       -0.2655
      5 H          12.7815   42.7850    8.5227 H       1  UNL1        0.1608
      6 H          10.6893   41.6478    8.5705 H       1  UNL1        0.1565
      7 C           9.5939   40.8232    7.0010 C.ar    1  UNL1        0.0868
      8 C           9.9084   39.9190    5.9807 C.ar    1  UNL1        0.0292
      9 C           8.9244   39.0946    5.4327 C.ar    1  UNL1        0.0591
     10 C           7.6159   39.1582    5.9116 C.ar    1  UNL1        0.0146
     11 C           7.2830   40.0748    6.9106 C.ar    1  UNL1        0.0391
     12 C           8.2501   40.9347    7.4439 C.ar    1  UNL1        0.1521
     13 CL          9.3392   37.9595    4.1670 Cl      1  UNL1       -0.0822
     14 C           7.7683   41.6271    9.7764 C.3     1  UNL1        0.2525
     15 O           7.8240   41.8836    8.3803 O.3     1  UNL1       -0.4702
     16 C          15.8430   43.9752    6.3223 C.ar    1  UNL1        0.1984
     17 C          14.9701   44.8430    5.6934 C.ar    1  UNL1        0.2085
     18 C          13.8915   43.4763    6.9046 C.ar    1  UNL1        0.2964
     19 O          13.7676   44.4949    6.0853 O.2     1  UNL1       -0.4202
     20 N          15.1694   43.1020    7.0947 N.ar    1  UNL1       -0.1877
     21 C          17.3029   43.9822    6.1857 C.2     1  UNL1        0.3625
     22 O          17.8290   43.9144    5.0410 O.2     1  UNL1       -0.2431
     23 O          18.0997   44.0645    7.3291 O.3     1  UNL1       -0.4443
     24 C          17.9123   41.9874    8.5106 C.3     1  UNL1        0.0513
     25 C          17.7029   43.4863    8.5636 C.3     1  UNL1        0.2089
@<TRIPOS>BOND
     1    24    25    1
     2    25    23    1
     3    21    23    1
     4    21    16    1
     5    16    20   ar
     6    17    19   ar
     7    18    19   ar
     8    18     3    1
     9     1     4   am
    10     8     9   ar
    11     9    13    1
    12    10    11   ar
    13    12    15    1
    14    12     7   ar
    15    14    15    1
    16     3     1   am
    17     4     7    1
    18    21    22    2
    19    16    17   ar
    20    18    20   ar
    21     1     2    2
    22     7     8   ar
    23     9    10   ar
    24    11    12   ar
    25     3     5    1
    26     4     6    1
@<TRIPOS>MOLECULE
MolPort-009-741-553 36709122 CSSS03437049413 MCULE-8154873311 PubChem-45503550 ZINC000036709122 ZINC36709122
 25 26 0 0 0
SMALL
GASTEIGER

@<TRIPOS>ATOM
      1 C          11.4850   41.9446    8.1225 C.2     1  UNL1        0.3115
      2 O          11.7441   42.6164    9.1582 O.2     1  UNL1       -0.2520
      3 N          10.1409   41.5599    7.8212 N.am    1  UNL1       -0.2231
      4 N          12.5331   41.5747    7.2212 N.am    1  UNL1       -0.2655
      5 H           9.9830   41.0537    6.9916 H       1  UNL1        0.1608
      6 H          12.2822   41.1381    6.3752 H       1  UNL1        0.1565
      7 C          13.9245   41.8004    7.4739 C.ar    1  UNL1        0.0868
      8 C          14.5533   42.8446    6.7870 C.ar    1  UNL1        0.0292
      9 C          15.8815   43.1766    7.0589 C.ar    1  UNL1        0.0591
     10 C          16.5901   42.4735    8.0331 C.ar    1  UNL1        0.0146
     11 C          15.9830   41.4121    8.7068 C.ar    1  UNL1        0.0391
     12 C          14.6642   41.0425    8.4188 C.ar    1  UNL1        0.1521
     13 CL         16.6473   44.4950    6.1999 Cl      1  UNL1       -0.0822
     14 C          13.8985   39.8771   10.4701 C.3     1  UNL1        0.2525
     15 O          14.1522   39.9160    9.0729 O.3     1  UNL1       -0.4702
     16 C           7.6835   41.8898   10.2671 C.ar    1  UNL1        0.1984
     17 C           7.1711   42.7063    9.2765 C.ar    1  UNL1        0.2085
     18 C           9.0108   41.8612    8.6442 C.ar    1  UNL1        0.2964
     19 O           8.0302   42.6579    8.2863 O.2     1  UNL1       -0.4202
     20 N           8.8523   41.3471    9.8769 N.ar    1  UNL1       -0.1877
     21 C           7.0619   41.6323   11.5699 C.2     1  UNL1        0.3625
     22 O           7.6162   42.0455   12.6252 O.2     1  UNL1       -0.2431
     23 O           5.8571   40.9295   11.6296 O.3     1  UNL1       -0.4443
     24 C           3.8343   40.7104   10.3625 C.3     1  UNL1        0.0513
     25 C           4.6110   41.5515   11.3537 C.3     1  UNL1        0.2089
@<TRIPOS>BOND
     1    24    25    1
     2    25    23    1
     3    21    23    1
     4    21    16    1
     5    16    20   ar
     6    17    19   ar
     7    18    19   ar
     8    18     3    1
     9     1     4   am
    10     8     9   ar
    11     9    13    1
    12    10    11   ar
    13    12    15    1
    14    12     7   ar
    15    14    15    1
    16     3     1   am
    17     4     7    1
    18    21    22    2
    19    16    17   ar
    20    18    20   ar
    21     1     2    2
    22     7     8   ar
    23     9    10   ar
    24    11    12   ar
    25     3     5    1
    26     4     6    1
@<TRIPOS>MOLECULE
MolPort-009-741-553 36709122 CSSS03437049413 MCULE-8154873311 PubChem-45503550 ZINC000036709122 ZINC36709122
 25 26 0 0 0
SMALL
GASTEIGER

@<TRIPOS>ATOM
      1 C          11.5004   41.8887    7.8149 C.2     1  UNL1        0.3115
      2 O          11.6683   42.6267    8.8240 O.2     1  UNL1       -0.2520
      3 N          10.1888   41.4667    7.4313 N.am    1  UNL1       -0.2231
      4 N          12.6215   41.4793    7.0256 N.am    1  UNL1       -0.2655
      5 H          10.1035   40.9082    6.6251 H       1  UNL1        0.1608
      6 H          12.4441   40.9878    6.1912 H       1  UNL1        0.1565
      7 C          13.9857   41.7404    7.3746 C.ar    1  UNL1        0.0868
      8 C          14.6458   42.7760    6.7044 C.ar    1  UNL1        0.0292
      9 C          15.9436   43.1427    7.0644 C.ar    1  UNL1        0.0591
     10 C          16.5891   42.4833    8.1104 C.ar    1  UNL1        0.0146
     11 C          15.9519   41.4305    8.7696 C.ar    1  UNL1        0.0391
     12 C          14.6653   41.0260    8.3954 C.ar    1  UNL1        0.1521
     13 CL         16.7484   44.4500    6.2244 Cl      1  UNL1       -0.0822
     14 C          13.6464   39.9438   10.3810 C.3     1  UNL1        0.2525
     15 O          14.1256   39.9095    9.0441 O.3     1  UNL1       -0.4702
     16 C           7.1203   42.6220    8.6057 C.ar    1  UNL1        0.1984
     17 C           7.5493   41.8832    9.6923 C.ar    1  UNL1        0.2085
     18 C           8.9929   41.8016    8.1405 C.ar    1  UNL1        0.2964
     19 O           8.7184   41.3914    9.3573 O.2     1  UNL1       -0.4202
     20 N           8.0292   42.5778    7.6134 N.ar    1  UNL1       -0.1877
     21 C           5.8567   43.3610    8.5190 C.2     1  UNL1        0.3625
     22 O           5.6390   44.1239    7.5380 O.2     1  UNL1       -0.2431
     23 O           4.9028   43.2118    9.5273 O.3     1  UNL1       -0.4443
     24 C           3.2491   41.4841    9.3663 C.3     1  UNL1        0.0513
     25 C           3.5352   42.9655    9.2362 C.3     1  UNL1        0.2089
@<TRIPOS>BOND
     1    24    25    1
     2    25    23    1
     3    21    23    1
     4    21    16    1
     5    16    20   ar
     6    17    19   ar
     7    18    19   ar
     8    18     3    1
     9     1     4   am
    10     8     9   ar
    11     9    13    1
    12    10    11   ar
    13    12    15    1
    14    12     7   ar
    15    14    15    1
    16     3     1   am
    17     4     7    1
    18    21    22    2
    19    16    17   ar
    20    18    20   ar
    21     1     2    2
    22     7     8   ar
    23     9    10   ar
    24    11    12   ar
    25     3     5    1
    26     4     6    1
@<TRIPOS>MOLECULE
MolPort-009-741-553 36709122 CSSS03437049413 MCULE-8154873311 PubChem-45503550 ZINC000036709122 ZINC36709122
 25 26 0 0 0
SMALL
GASTEIGER

@<TRIPOS>ATOM
      1 C           9.1423   41.8630    9.9944 C.2     1  UNL1        0.3115
      2 O           8.9444   40.8366    9.2883 O.2     1  UNL1       -0.2520
      3 N          10.4567   42.1878   10.4550 N.am    1  UNL1       -0.2231
      4 N           8.0541   42.7303   10.3280 N.am    1  UNL1       -0.2655
      5 H          10.5673   43.0094   10.9861 H       1  UNL1        0.1608
      6 H           8.2608   43.5720   10.7948 H       1  UNL1        0.1565
      7 C           6.6830   42.4492   10.0246 C.ar    1  UNL1        0.0868
      8 C           6.0201   41.5005   10.8107 C.ar    1  UNL1        0.0292
      9 C           4.6590   41.2513   10.6280 C.ar    1  UNL1        0.0591
     10 C           3.9440   41.9611    9.6634 C.ar    1  UNL1        0.0146
     11 C           4.5990   42.8912    8.8542 C.ar    1  UNL1        0.0391
     12 C           5.9713   43.1251    8.9994 C.ar    1  UNL1        0.1521
     13 CL          3.8432   40.0712   11.6302 Cl      1  UNL1       -0.0822
     14 C           6.7543   43.7093    6.7195 C.3     1  UNL1        0.2525
     15 O           6.5746   44.0082    8.0966 O.3     1  UNL1       -0.4702
     16 C          13.1221   39.9471   10.3837 C.ar    1  UNL1        0.1984
     17 C          13.3730   40.6811    9.2396 C.ar    1  UNL1        0.2085
     18 C          11.6213   41.3992   10.1958 C.ar    1  UNL1        0.2964
     19 O          12.4137   41.5726    9.1633 O.2     1  UNL1       -0.4202
     20 N          12.0115   40.3941   10.9999 N.ar    1  UNL1       -0.1877
     21 C          13.9352   38.8327   10.8806 C.2     1  UNL1        0.3625
     22 O          14.3573   38.8416   12.0694 O.2     1  UNL1       -0.2431
     23 O          14.2351   37.7677   10.0291 O.3     1  UNL1       -0.4443
     24 C          12.2759   36.4468   10.4317 C.3     1  UNL1        0.0513
     25 C          13.7837   36.4473   10.2909 C.3     1  UNL1        0.2089
@<TRIPOS>BOND
     1    24    25    1
     2    25    23    1
     3    21    23    1
     4    21    16    1
     5    16    20   ar
     6    17    19   ar
     7    18    19   ar
     8    18     3    1
     9     1     4   am
    10     8     9   ar
    11     9    13    1
    12    10    11   ar
    13    12    15    1
    14    12     7   ar
    15    14    15    1
    16     3     1   am
    17     4     7    1
    18    21    22    2
    19    16    17   ar
    20    18    20   ar
    21     1     2    2
    22     7     8   ar
    23     9    10   ar
    24    11    12   ar
    25     3     5    1
    26     4     6    1
