@<TRIPOS>MOLECULE
MolPort-046-971-670 MCULE-7261905187 PubChem-110111614
 29 32 0 0 0
SMALL
GASTEIGER

@<TRIPOS>ATOM
      1 C          13.5947   35.5650    9.4922 C.ar    1  UNL1        0.1329
      2 C          11.5926   35.9162   10.7285 C.ar    1  UNL1        0.1000
      3 C          11.5528   37.2526   10.3285 C.ar    1  UNL1        0.0166
      4 C          12.5618   37.7486    9.4925 C.ar    1  UNL1       -0.0165
      5 C          13.5870   36.8978    9.0731 C.ar    1  UNL1        0.0302
      6 N          12.6019   35.1085   10.3065 N.ar    1  UNL1       -0.2291
      7 C          12.5627   39.1725    9.0350 C.3     1  UNL1        0.0424
      8 C          11.2071   39.5636    8.4419 C.3     1  UNL1        0.0078
      9 C          11.2229   41.0252    8.0009 C.3     1  UNL1        0.0219
     10 C          12.3402   41.2552    6.9870 C.3     1  UNL1        0.0937
     11 C          13.6837   39.4236    8.0258 C.3     1  UNL1        0.0980
     12 C          14.7086   41.7029    7.7866 C.2     1  UNL1        0.2521
     13 N          13.6118   40.8015    7.5470 N.am    1  UNL1       -0.2757
     14 O          15.5576   41.4113    8.6738 O.2     1  UNL1       -0.2698
     15 C          14.8859   42.9592    7.0210 C.ar    1  UNL1        0.0918
     16 C          13.8340   43.4744    6.2559 C.ar    1  UNL1        0.1067
     17 C          15.1558   45.3294    5.6300 C.ar    1  UNL1        0.1989
     18 C          16.0741   43.6955    7.0676 C.ar    1  UNL1        0.1067
     19 N          13.9869   44.6402    5.5756 N.ar    1  UNL1       -0.2223
     20 N          16.1895   44.8573    6.3735 N.ar    1  UNL1       -0.2223
     21 N          14.6533   34.7049    9.0544 N.pl3   1  UNL1       -0.2836
     22 H          14.4405   33.7473    8.9699 H       1  UNL1        0.1550
     23 C          15.8580   33.7400    6.6034 C.3     1  UNL1        0.0340
     24 C          16.5887   34.6387    7.5411 C.ar    1  UNL1        0.0099
     25 C          15.9935   35.1010    8.7266 C.ar    1  UNL1        0.1291
     26 C          17.9711   36.3137    9.2672 C.ar    1  UNL1        0.1003
     27 C          18.5916   35.8732    8.0978 C.ar    1  UNL1        0.0204
     28 C          17.8928   35.0311    7.2330 C.ar    1  UNL1        0.0001
     29 N          16.7004   35.9230    9.5532 N.ar    1  UNL1       -0.2294
@<TRIPOS>BOND
     1    23    24    1
     2    25    29   ar
     3    25    21    1
     4    26    27   ar
     5    28    24   ar
     6     2     6   ar
     7     3     4   ar
     8     5     1   ar
     9     7     4    1
    10     7     8    1
    11     8     9    1
    12     9    10    1
    13    10    13    1
    14    11    13    1
    15    11     7    1
    16    12    15    1
    17    16    19   ar
    18    17    20   ar
    19    18    15   ar
    20    21     1    1
    21    13    12   am
    22    24    25   ar
    23    26    29   ar
    24    27    28   ar
    25     1     6   ar
    26     2     3   ar
    27     4     5   ar
    28    12    14    2
    29    15    16   ar
    30    17    19   ar
    31    18    20   ar
    32    21    22    1
@<TRIPOS>MOLECULE
MolPort-046-971-670 MCULE-7261905187 PubChem-110111614
 29 32 0 0 0
SMALL
GASTEIGER

@<TRIPOS>ATOM
      1 C          13.7585   40.9105    8.8071 C.ar    1  UNL1        0.1329
      2 C          13.6621   39.6013   10.7912 C.ar    1  UNL1        0.1000
      3 C          12.3871   40.0902   11.0794 C.ar    1  UNL1        0.0166
      4 C          11.7924   41.0111   10.2068 C.ar    1  UNL1       -0.0165
      5 C          12.4838   41.4214    9.0648 C.ar    1  UNL1        0.0302
      6 N          14.3146   40.0171    9.6729 N.ar    1  UNL1       -0.2291
      7 C          10.4274   41.5627   10.4706 C.3     1  UNL1        0.0424
      8 C           9.9978   41.3072   11.9170 C.3     1  UNL1        0.0078
      9 C           8.6120   41.8960   12.1706 C.3     1  UNL1        0.0219
     10 C           7.6015   41.2980   11.1957 C.3     1  UNL1        0.0937
     11 C           9.4033   40.9819    9.4948 C.3     1  UNL1        0.0980
     12 C           7.3482   42.2803    8.8675 C.2     1  UNL1        0.2521
     13 N           8.0726   41.4853    9.8247 N.am    1  UNL1       -0.2757
     14 O           7.9777   42.8086    7.9097 O.2     1  UNL1       -0.2698
     15 C           5.8846   42.4938    8.9579 C.ar    1  UNL1        0.0918
     16 C           5.0237   41.4093    9.1578 C.ar    1  UNL1        0.1067
     17 C           3.1573   42.8569    9.1938 C.ar    1  UNL1        0.1989
     18 C           5.3154   43.7699    8.8965 C.ar    1  UNL1        0.1067
     19 N           3.6844   41.6074    9.2679 N.ar    1  UNL1       -0.2223
     20 N           3.9713   43.9283    9.0107 N.ar    1  UNL1       -0.2223
     21 N          14.4555   41.3415    7.6321 N.pl3   1  UNL1       -0.2836
     22 H          14.1701   40.9460    6.7769 H       1  UNL1        0.1550
     23 C          14.1884   43.6876    5.9545 C.3     1  UNL1        0.0340
     24 C          15.4113   43.4342    6.7676 C.ar    1  UNL1        0.0099
     25 C          15.5289   42.2930    7.5784 C.ar    1  UNL1        0.1291
     26 C          17.6982   42.9892    8.2737 C.ar    1  UNL1        0.1003
     27 C          17.6136   44.1331    7.4794 C.ar    1  UNL1        0.0204
     28 C          16.4620   44.3527    6.7238 C.ar    1  UNL1        0.0001
     29 N          16.6663   42.1042    8.3059 N.ar    1  UNL1       -0.2294
@<TRIPOS>BOND
     1    23    24    1
     2    25    29   ar
     3    25    21    1
     4    26    27   ar
     5    28    24   ar
     6     2     6   ar
     7     3     4   ar
     8     5     1   ar
     9     7     4    1
    10     7     8    1
    11     8     9    1
    12     9    10    1
    13    10    13    1
    14    11    13    1
    15    11     7    1
    16    12    15    1
    17    16    19   ar
    18    17    20   ar
    19    18    15   ar
    20    21     1    1
    21    13    12   am
    22    24    25   ar
    23    26    29   ar
    24    27    28   ar
    25     1     6   ar
    26     2     3   ar
    27     4     5   ar
    28    12    14    2
    29    15    16   ar
    30    17    19   ar
    31    18    20   ar
    32    21    22    1
@<TRIPOS>MOLECULE
MolPort-046-971-670 MCULE-7261905187 PubChem-110111614
 29 32 0 0 0
SMALL
GASTEIGER

@<TRIPOS>ATOM
      1 C          14.1035   40.7333    9.1121 C.ar    1  UNL1        0.1329
      2 C          13.2184   39.6955   11.0614 C.ar    1  UNL1        0.1000
      3 C          11.9148   39.9123   10.6128 C.ar    1  UNL1        0.0166
      4 C          11.7100   40.5563    9.3855 C.ar    1  UNL1       -0.0165
      5 C          12.8122   40.9676    8.6327 C.ar    1  UNL1        0.0302
      6 N          14.2747   40.1061   10.3098 N.ar    1  UNL1       -0.2291
      7 C          10.3327   40.8101    8.8606 C.3     1  UNL1        0.0424
      8 C          10.2976   40.7198    7.3333 C.3     1  UNL1        0.0078
      9 C           8.8799   40.9609    6.8202 C.3     1  UNL1        0.0219
     10 C           8.3764   42.3227    7.2902 C.3     1  UNL1        0.0937
     11 C           9.8078   42.1670    9.3313 C.3     1  UNL1        0.0980
     12 C           7.3438   42.5680    9.5974 C.2     1  UNL1        0.2521
     13 N           8.4934   42.4138    8.7444 N.am    1  UNL1       -0.2757
     14 O           7.4102   42.1668   10.7921 O.2     1  UNL1       -0.2698
     15 C           6.0844   43.1920    9.1278 C.ar    1  UNL1        0.0918
     16 C           4.8498   42.6131    9.4408 C.ar    1  UNL1        0.1067
     17 C           3.7133   44.3573    8.3246 C.ar    1  UNL1        0.1989
     18 C           6.0738   44.3899    8.4059 C.ar    1  UNL1        0.1067
     19 N           3.6940   43.1993    9.0339 N.ar    1  UNL1       -0.2223
     20 N           4.8975   44.9460    8.0161 N.ar    1  UNL1       -0.2223
     21 N          15.2240   41.1617    8.3290 N.pl3   1  UNL1       -0.2836
     22 H          16.0351   40.6056    8.3740 H       1  UNL1        0.1550
     23 C          17.4203   43.0262    8.6279 C.3     1  UNL1        0.0340
     24 C          16.3408   43.2336    7.6215 C.ar    1  UNL1        0.0099
     25 C          15.2809   42.3216    7.4853 C.ar    1  UNL1        0.1291
     26 C          14.3461   43.6425    5.7373 C.ar    1  UNL1        0.1003
     27 C          15.3849   44.5675    5.8462 C.ar    1  UNL1        0.0204
     28 C          16.3854   44.3579    6.7950 C.ar    1  UNL1        0.0001
     29 N          14.3168   42.5522    6.5494 N.ar    1  UNL1       -0.2294
@<TRIPOS>BOND
     1    23    24    1
     2    25    29   ar
     3    25    21    1
     4    26    27   ar
     5    28    24   ar
     6     2     6   ar
     7     3     4   ar
     8     5     1   ar
     9     7     4    1
    10     7     8    1
    11     8     9    1
    12     9    10    1
    13    10    13    1
    14    11    13    1
    15    11     7    1
    16    12    15    1
    17    16    19   ar
    18    17    20   ar
    19    18    15   ar
    20    21     1    1
    21    13    12   am
    22    24    25   ar
    23    26    29   ar
    24    27    28   ar
    25     1     6   ar
    26     2     3   ar
    27     4     5   ar
    28    12    14    2
    29    15    16   ar
    30    17    19   ar
    31    18    20   ar
    32    21    22    1
@<TRIPOS>MOLECULE
MolPort-046-971-670 MCULE-7261905187 PubChem-110111614
 29 32 0 0 0
SMALL
GASTEIGER

@<TRIPOS>ATOM
      1 C           7.9954   40.5175    7.6954 C.ar    1  UNL1        0.1329
      2 C           8.3071   38.6434    6.2635 C.ar    1  UNL1        0.1000
      3 C           9.6934   38.7615    6.3727 C.ar    1  UNL1        0.0166
      4 C          10.2345   39.7848    7.1621 C.ar    1  UNL1       -0.0165
      5 C           9.3785   40.6660    7.8265 C.ar    1  UNL1        0.0302
      6 N           7.4953   39.5145    6.9202 N.ar    1  UNL1       -0.2291
      7 C          11.7131   39.9519    7.3123 C.3     1  UNL1        0.0424
      8 C          12.2677   39.0218    8.3937 C.3     1  UNL1        0.0078
      9 C          13.7800   39.1931    8.5160 C.3     1  UNL1        0.0219
     10 C          14.1194   40.6471    8.8314 C.3     1  UNL1        0.0937
     11 C          12.0724   41.4065    7.6182 C.3     1  UNL1        0.0980
     12 C          14.3035   42.3449    6.9517 C.2     1  UNL1        0.2521
     13 N          13.5130   41.5210    7.8288 N.am    1  UNL1       -0.2757
     14 O          13.8235   42.6866    5.8357 O.2     1  UNL1       -0.2698
     15 C          15.6600   42.8181    7.3152 C.ar    1  UNL1        0.0918
     16 C          16.4395   42.0962    8.2253 C.ar    1  UNL1        0.1067
     17 C          18.2157   43.6327    7.9712 C.ar    1  UNL1        0.1989
     18 C          16.2273   43.9591    6.7386 C.ar    1  UNL1        0.1067
     19 N          17.6934   42.5146    8.5382 N.ar    1  UNL1       -0.2223
     20 N          17.4845   44.3464    7.0766 N.ar    1  UNL1       -0.2223
     21 N           7.1303   41.4296    8.3824 N.pl3   1  UNL1       -0.2836
     22 H           6.2076   41.1278    8.5461 H       1  UNL1        0.1550
     23 C           6.0926   43.7550    7.0021 C.3     1  UNL1        0.0340
     24 C           6.9793   43.8754    8.1938 C.ar    1  UNL1        0.0099
     25 C           7.4757   42.7400    8.8556 C.ar    1  UNL1        0.1291
     26 C           8.6256   44.1287   10.4123 C.ar    1  UNL1        0.1003
     27 C           8.1494   45.2769    9.7787 C.ar    1  UNL1        0.0204
     28 C           7.3221   45.1447    8.6636 C.ar    1  UNL1        0.0001
     29 N           8.2826   42.8995    9.9429 N.ar    1  UNL1       -0.2294
@<TRIPOS>BOND
     1    23    24    1
     2    25    29   ar
     3    25    21    1
     4    26    27   ar
     5    28    24   ar
     6     2     6   ar
     7     3     4   ar
     8     5     1   ar
     9     7     4    1
    10     7     8    1
    11     8     9    1
    12     9    10    1
    13    10    13    1
    14    11    13    1
    15    11     7    1
    16    12    15    1
    17    16    19   ar
    18    17    20   ar
    19    18    15   ar
    20    21     1    1
    21    13    12   am
    22    24    25   ar
    23    26    29   ar
    24    27    28   ar
    25     1     6   ar
    26     2     3   ar
    27     4     5   ar
    28    12    14    2
    29    15    16   ar
    30    17    19   ar
    31    18    20   ar
    32    21    22    1
@<TRIPOS>MOLECULE
MolPort-046-971-670 MCULE-7261905187 PubChem-110111614
 29 32 0 0 0
SMALL
GASTEIGER

@<TRIPOS>ATOM
      1 C           6.2195   40.6954    7.5195 C.ar    1  UNL1        0.1329
      2 C           7.3537   39.0735    6.1993 C.ar    1  UNL1        0.1000
      3 C           8.5781   39.4395    6.7602 C.ar    1  UNL1        0.0166
      4 C           8.6150   40.4588    7.7208 C.ar    1  UNL1       -0.0165
      5 C           7.4277   41.0882    8.1012 C.ar    1  UNL1        0.0302
      6 N           6.2118   39.7023    6.5864 N.ar    1  UNL1       -0.2291
      7 C           9.9017   40.8858    8.3525 C.3     1  UNL1        0.0424
      8 C           9.8014   42.3102    8.9032 C.3     1  UNL1        0.0078
      9 C          11.1172   42.7182    9.5616 C.3     1  UNL1        0.0219
     10 C          12.2619   42.6088    8.5583 C.3     1  UNL1        0.0937
     11 C          11.0624   40.7722    7.3636 C.3     1  UNL1        0.0980
     12 C          13.4049   40.3737    8.1741 C.2     1  UNL1        0.2521
     13 N          12.2878   41.2629    7.9885 N.am    1  UNL1       -0.2757
     14 O          13.2127   39.1281    8.1088 O.2     1  UNL1       -0.2698
     15 C          14.7788   40.8670    8.4289 C.ar    1  UNL1        0.0918
     16 C          15.2695   41.9795    7.7368 C.ar    1  UNL1        0.1067
     17 C          17.3105   41.8547    8.9196 C.ar    1  UNL1        0.1989
     18 C          15.6114   40.2821    9.3885 C.ar    1  UNL1        0.1067
     19 N          16.5189   42.4487    7.9895 N.ar    1  UNL1       -0.2223
     20 N          16.8551   40.7796    9.6132 N.ar    1  UNL1       -0.2223
     21 N           5.0102   41.3510    7.9193 N.pl3   1  UNL1       -0.2836
     22 H           4.4915   41.7959    7.2105 H       1  UNL1        0.1550
     23 C           3.8250   43.8280    8.8410 C.3     1  UNL1        0.0340
     24 C           3.9033   42.6197    9.7098 C.ar    1  UNL1        0.0099
     25 C           4.4797   41.4234    9.2512 C.ar    1  UNL1        0.1291
     26 C           4.0329   40.3842   11.3475 C.ar    1  UNL1        0.1003
     27 C           3.4534   41.5564   11.8340 C.ar    1  UNL1        0.0204
     28 C           3.3905   42.6778   11.0071 C.ar    1  UNL1        0.0001
     29 N           4.5276   40.3432   10.0815 N.ar    1  UNL1       -0.2294
@<TRIPOS>BOND
     1    23    24    1
     2    25    29   ar
     3    25    21    1
     4    26    27   ar
     5    28    24   ar
     6     2     6   ar
     7     3     4   ar
     8     5     1   ar
     9     7     4    1
    10     7     8    1
    11     8     9    1
    12     9    10    1
    13    10    13    1
    14    11    13    1
    15    11     7    1
    16    12    15    1
    17    16    19   ar
    18    17    20   ar
    19    18    15   ar
    20    21     1    1
    21    13    12   am
    22    24    25   ar
    23    26    29   ar
    24    27    28   ar
    25     1     6   ar
    26     2     3   ar
    27     4     5   ar
    28    12    14    2
    29    15    16   ar
    30    17    19   ar
    31    18    20   ar
    32    21    22    1
@<TRIPOS>MOLECULE
MolPort-046-971-670 MCULE-7261905187 PubChem-110111614
 29 32 0 0 0
SMALL
GASTEIGER

@<TRIPOS>ATOM
      1 C           7.6329   41.3120    7.5681 C.ar    1  UNL1        0.1329
      2 C           7.7732   39.4059    6.1515 C.ar    1  UNL1        0.1000
      3 C           9.1619   39.3787    6.2872 C.ar    1  UNL1        0.0166
      4 C           9.7924   40.3449    7.0822 C.ar    1  UNL1       -0.0165
      5 C           9.0211   41.3155    7.7255 C.ar    1  UNL1        0.0302
      6 N           7.0450   40.3618    6.7880 N.ar    1  UNL1       -0.2291
      7 C          11.2773   40.3570    7.2605 C.3     1  UNL1        0.0424
      8 C          11.7115   39.3727    8.3489 C.3     1  UNL1        0.0078
      9 C          13.2308   39.3855    8.5001 C.3     1  UNL1        0.0219
     10 C          13.7137   40.7959    8.8266 C.3     1  UNL1        0.0937
     11 C          11.7800   41.7658    7.5779 C.3     1  UNL1        0.0980
     12 C          14.1089   42.4678    6.9563 C.2     1  UNL1        0.2521
     13 N          13.2205   41.7295    7.8157 N.am    1  UNL1       -0.2757
     14 O          13.6882   42.8591    5.8327 O.2     1  UNL1       -0.2698
     15 C          15.5001   42.7968    7.3466 C.ar    1  UNL1        0.0918
     16 C          16.1000   43.9772    6.8948 C.ar    1  UNL1        0.1067
     17 C          18.0680   43.4762    8.1014 C.ar    1  UNL1        0.1989
     18 C          16.2426   41.9806    8.2060 C.ar    1  UNL1        0.1067
     19 N          17.3656   44.2926    7.2741 N.ar    1  UNL1       -0.2223
     20 N          17.5058   42.3295    8.5631 N.ar    1  UNL1       -0.2223
     21 N           6.8554   42.3144    8.2337 N.pl3   1  UNL1       -0.2836
     22 H           7.2420   43.2188    8.2779 H       1  UNL1        0.1550
     23 C           4.8551   44.3933    7.9762 C.3     1  UNL1        0.0340
     24 C           4.5906   43.1324    8.7253 C.ar    1  UNL1        0.0099
     25 C           5.5686   42.1307    8.8425 C.ar    1  UNL1        0.1291
     26 C           4.0700   40.7932   10.1229 C.ar    1  UNL1        0.1003
     27 C           3.0763   41.7676   10.0251 C.ar    1  UNL1        0.0204
     28 C           3.3425   42.9421    9.3216 C.ar    1  UNL1        0.0001
     29 N           5.2804   40.9931    9.5364 N.ar    1  UNL1       -0.2294
@<TRIPOS>BOND
     1    23    24    1
     2    25    29   ar
     3    25    21    1
     4    26    27   ar
     5    28    24   ar
     6     2     6   ar
     7     3     4   ar
     8     5     1   ar
     9     7     4    1
    10     7     8    1
    11     8     9    1
    12     9    10    1
    13    10    13    1
    14    11    13    1
    15    11     7    1
    16    12    15    1
    17    16    19   ar
    18    17    20   ar
    19    18    15   ar
    20    21     1    1
    21    13    12   am
    22    24    25   ar
    23    26    29   ar
    24    27    28   ar
    25     1     6   ar
    26     2     3   ar
    27     4     5   ar
    28    12    14    2
    29    15    16   ar
    30    17    19   ar
    31    18    20   ar
    32    21    22    1
@<TRIPOS>MOLECULE
MolPort-046-971-670 MCULE-7261905187 PubChem-110111614
 29 32 0 0 0
SMALL
GASTEIGER

@<TRIPOS>ATOM
      1 C           7.6142   40.6208    7.9116 C.ar    1  UNL1        0.1329
      2 C           7.8763   39.4982    5.8305 C.ar    1  UNL1        0.1000
      3 C           9.2653   39.5287    5.9627 C.ar    1  UNL1        0.0166
      4 C           9.8332   40.1221    7.0978 C.ar    1  UNL1       -0.0165
      5 C           9.0008   40.6700    8.0764 C.ar    1  UNL1        0.0302
      6 N           7.0878   40.0391    6.7974 N.ar    1  UNL1       -0.2291
      7 C          11.3158   40.1781    7.2866 C.3     1  UNL1        0.0424
      8 C          11.7705   39.2119    8.3829 C.3     1  UNL1        0.0078
      9 C          13.2877   39.2694    8.5448 C.3     1  UNL1        0.0219
     10 C          13.7271   40.6948    8.8678 C.3     1  UNL1        0.0937
     11 C          11.7753   41.6024    7.6007 C.3     1  UNL1        0.0980
     12 C          14.0872   42.3687    6.9923 C.2     1  UNL1        0.2521
     13 N          13.2145   41.6089    7.8490 N.am    1  UNL1       -0.2757
     14 O          13.6636   42.7424    5.8638 O.2     1  UNL1       -0.2698
     15 C          15.4655   42.7397    7.3908 C.ar    1  UNL1        0.0918
     16 C          16.0279   43.9432    6.9518 C.ar    1  UNL1        0.1067
     17 C          18.0070   43.4963    8.1615 C.ar    1  UNL1        0.1989
     18 C          16.2314   41.9407    8.2458 C.ar    1  UNL1        0.1067
     19 N          17.2810   44.2966    7.3388 N.ar    1  UNL1       -0.2223
     20 N          17.4811   42.3276    8.6108 N.ar    1  UNL1       -0.2223
     21 N           6.7736   41.1878    8.9236 N.pl3   1  UNL1       -0.2836
     22 H           6.8641   40.8205    9.8325 H       1  UNL1        0.1550
     23 C           4.1190   40.8884   10.0430 C.3     1  UNL1        0.0340
     24 C           4.5213   42.1043    9.2809 C.ar    1  UNL1        0.0099
     25 C           5.8123   42.2385    8.7434 C.ar    1  UNL1        0.1291
     26 C           5.2445   44.3803    7.8692 C.ar    1  UNL1        0.1003
     27 C           3.9543   44.2793    8.3903 C.ar    1  UNL1        0.0204
     28 C           3.5951   43.1331    9.0993 C.ar    1  UNL1        0.0001
     29 N           6.1354   43.3699    8.0547 N.ar    1  UNL1       -0.2294
@<TRIPOS>BOND
     1    23    24    1
     2    25    29   ar
     3    25    21    1
     4    26    27   ar
     5    28    24   ar
     6     2     6   ar
     7     3     4   ar
     8     5     1   ar
     9     7     4    1
    10     7     8    1
    11     8     9    1
    12     9    10    1
    13    10    13    1
    14    11    13    1
    15    11     7    1
    16    12    15    1
    17    16    19   ar
    18    17    20   ar
    19    18    15   ar
    20    21     1    1
    21    13    12   am
    22    24    25   ar
    23    26    29   ar
    24    27    28   ar
    25     1     6   ar
    26     2     3   ar
    27     4     5   ar
    28    12    14    2
    29    15    16   ar
    30    17    19   ar
    31    18    20   ar
    32    21    22    1
@<TRIPOS>MOLECULE
MolPort-046-971-670 MCULE-7261905187 PubChem-110111614
 29 32 0 0 0
SMALL
GASTEIGER

@<TRIPOS>ATOM
      1 C           6.7819   41.2500    7.3379 C.ar    1  UNL1        0.1329
      2 C           7.5676   39.4639    5.9768 C.ar    1  UNL1        0.1000
      3 C           8.8738   39.6669    6.4244 C.ar    1  UNL1        0.0166
      4 C           9.1311   40.6880    7.3487 C.ar    1  UNL1       -0.0165
      5 C           8.0775   41.4821    7.8067 C.ar    1  UNL1        0.0302
      6 N           6.5593   40.2512    6.4379 N.ar    1  UNL1       -0.2291
      7 C          10.5131   40.9440    7.8600 C.3     1  UNL1        0.0424
      8 C          11.3489   41.7124    6.8338 C.3     1  UNL1        0.0078
      9 C          12.7478   41.9813    7.3834 C.3     1  UNL1        0.0219
     10 C          13.4274   40.6662    7.7545 C.3     1  UNL1        0.0937
     11 C          11.2056   39.6367    8.2471 C.3     1  UNL1        0.0980
     12 C          12.9851   39.6022   10.0176 C.2     1  UNL1        0.2521
     13 N          12.5743   39.9154    8.6737 N.am    1  UNL1       -0.2757
     14 O          12.1019   39.4079   10.8978 O.2     1  UNL1       -0.2698
     15 C          14.4107   39.4880   10.4060 C.ar    1  UNL1        0.0918
     16 C          14.7691   38.8466   11.5965 C.ar    1  UNL1        0.1067
     17 C          17.0586   39.1998   11.1346 C.ar    1  UNL1        0.1989
     18 C          15.4425   39.9650    9.5911 C.ar    1  UNL1        0.1067
     19 N          16.0770   38.7175   11.9398 N.ar    1  UNL1       -0.2223
     20 N          16.7389   39.8174    9.9682 N.ar    1  UNL1       -0.2223
     21 N           5.7117   42.0734    7.8163 N.pl3   1  UNL1       -0.2836
     22 H           5.4188   42.8063    7.2279 H       1  UNL1        0.1550
     23 C           3.7683   44.0750    8.5951 C.3     1  UNL1        0.0340
     24 C           4.0802   42.9004    9.4578 C.ar    1  UNL1        0.0099
     25 C           5.0242   41.9355    9.0688 C.ar    1  UNL1        0.1291
     26 C           4.6389   40.7218   11.0819 C.ar    1  UNL1        0.1003
     27 C           3.6954   41.6616   11.4980 C.ar    1  UNL1        0.0204
     28 C           3.4178   42.7553   10.6783 C.ar    1  UNL1        0.0001
     29 N           5.2755   40.8770    9.8904 N.ar    1  UNL1       -0.2294
@<TRIPOS>BOND
     1    23    24    1
     2    25    29   ar
     3    25    21    1
     4    26    27   ar
     5    28    24   ar
     6     2     6   ar
     7     3     4   ar
     8     5     1   ar
     9     7     4    1
    10     7     8    1
    11     8     9    1
    12     9    10    1
    13    10    13    1
    14    11    13    1
    15    11     7    1
    16    12    15    1
    17    16    19   ar
    18    17    20   ar
    19    18    15   ar
    20    21     1    1
    21    13    12   am
    22    24    25   ar
    23    26    29   ar
    24    27    28   ar
    25     1     6   ar
    26     2     3   ar
    27     4     5   ar
    28    12    14    2
    29    15    16   ar
    30    17    19   ar
    31    18    20   ar
    32    21    22    1
@<TRIPOS>MOLECULE
MolPort-046-971-670 MCULE-7261905187 PubChem-110111614
 29 32 0 0 0
SMALL
GASTEIGER

@<TRIPOS>ATOM
      1 C           7.6768   42.6910    8.3671 C.ar    1  UNL1        0.1329
      2 C           8.2034   42.0793    6.1291 C.ar    1  UNL1        0.1000
      3 C           9.5245   41.8097    6.4893 C.ar    1  UNL1        0.0166
      4 C           9.9226   41.9890    7.8206 C.ar    1  UNL1       -0.0165
      5 C           8.9915   42.4317    8.7628 C.ar    1  UNL1        0.0302
      6 N           7.3162   42.5097    7.0655 N.ar    1  UNL1       -0.2291
      7 C          11.3262   41.7120    8.2567 C.3     1  UNL1        0.0424
      8 C          12.3172   41.9504    7.1150 C.3     1  UNL1        0.0078
      9 C          13.7443   41.6824    7.5869 C.3     1  UNL1        0.0219
     10 C          13.8635   40.2549    8.1134 C.3     1  UNL1        0.0937
     11 C          11.4615   40.2881    8.7976 C.3     1  UNL1        0.0980
     12 C          13.2095   39.7263   10.5097 C.2     1  UNL1        0.2521
     13 N          12.8554   40.0276    9.1471 N.am    1  UNL1       -0.2757
     14 O          12.3950   40.0107   11.4308 O.2     1  UNL1       -0.2698
     15 C          14.4940   39.0824   10.8726 C.ar    1  UNL1        0.0918
     16 C          14.5079   37.9385   11.6780 C.ar    1  UNL1        0.1067
     17 C          16.8617   37.8173   11.5199 C.ar    1  UNL1        0.1989
     18 C          15.7213   39.5535   10.3953 C.ar    1  UNL1        0.1067
     19 N          15.6829   37.3320   11.9886 N.ar    1  UNL1       -0.2223
     20 N          16.8759   38.9201   10.7276 N.ar    1  UNL1       -0.2223
     21 N           6.7335   43.1453    9.3448 N.pl3   1  UNL1       -0.2836
     22 H           6.9085   44.0226    9.7559 H       1  UNL1        0.1550
     23 C           6.9048   41.3824   11.6366 C.3     1  UNL1        0.0340
     24 C           5.6293   41.5894   10.8941 C.ar    1  UNL1        0.0099
     25 C           5.5584   42.4478    9.7844 C.ar    1  UNL1        0.1291
     26 C           3.2408   41.9588    9.5323 C.ar    1  UNL1        0.1003
     27 C           3.2765   41.0995   10.6308 C.ar    1  UNL1        0.0204
     28 C           4.4796   40.9167   11.3124 C.ar    1  UNL1        0.0001
     29 N           4.3690   42.6070    9.1373 N.ar    1  UNL1       -0.2294
@<TRIPOS>BOND
     1    23    24    1
     2    25    29   ar
     3    25    21    1
     4    26    27   ar
     5    28    24   ar
     6     2     6   ar
     7     3     4   ar
     8     5     1   ar
     9     7     4    1
    10     7     8    1
    11     8     9    1
    12     9    10    1
    13    10    13    1
    14    11    13    1
    15    11     7    1
    16    12    15    1
    17    16    19   ar
    18    17    20   ar
    19    18    15   ar
    20    21     1    1
    21    13    12   am
    22    24    25   ar
    23    26    29   ar
    24    27    28   ar
    25     1     6   ar
    26     2     3   ar
    27     4     5   ar
    28    12    14    2
    29    15    16   ar
    30    17    19   ar
    31    18    20   ar
    32    21    22    1
@<TRIPOS>MOLECULE
MolPort-046-971-670 MCULE-7261905187 PubChem-110111614
 29 32 0 0 0
SMALL
GASTEIGER

@<TRIPOS>ATOM
      1 C          16.2368   37.4331    9.4228 C.ar    1  UNL1        0.1329
      2 C          16.5805   39.7289    9.9435 C.ar    1  UNL1        0.1000
      3 C          15.2040   39.9592    9.9415 C.ar    1  UNL1        0.0166
      4 C          14.3314   38.8968    9.6714 C.ar    1  UNL1       -0.0165
      5 C          14.8533   37.6276    9.4115 C.ar    1  UNL1        0.0302
      6 N          17.0634   38.4838    9.6869 N.ar    1  UNL1       -0.2291
      7 C          12.8486   39.0922    9.6595 C.3     1  UNL1        0.0424
      8 C          12.1195   37.7748    9.3859 C.3     1  UNL1        0.0078
      9 C          10.6083   37.9924    9.3989 C.3     1  UNL1        0.0219
     10 C          10.2211   39.0462    8.3652 C.3     1  UNL1        0.0937
     11 C          12.4435   40.1536    8.6360 C.3     1  UNL1        0.0980
     12 C          10.3569   41.5129    8.9539 C.2     1  UNL1        0.2521
     13 N          10.9880   40.2683    8.5996 N.am    1  UNL1       -0.2757
     14 O          11.0182   42.3721    9.5997 O.2     1  UNL1       -0.2698
     15 C           8.9588   41.8295    8.5783 C.ar    1  UNL1        0.0918
     16 C           8.6622   42.3051    7.2964 C.ar    1  UNL1        0.1067
     17 C           6.3597   42.3720    7.8196 C.ar    1  UNL1        0.1989
     18 C           7.8898   41.6249    9.4567 C.ar    1  UNL1        0.1067
     19 N           7.3778   42.5697    6.9427 N.ar    1  UNL1       -0.2223
     20 N           6.6184   41.9012    9.0668 N.ar    1  UNL1       -0.2223
     21 N          16.7570   36.1258    9.1535 N.pl3   1  UNL1       -0.2836
     22 H          16.5397   35.4193    9.8038 H       1  UNL1        0.1550
     23 C          19.4247   35.0930    9.6077 C.3     1  UNL1        0.0340
     24 C          18.8595   35.2427    8.2369 C.ar    1  UNL1        0.0099
     25 C          17.5637   35.7440    8.0292 C.ar    1  UNL1        0.1291
     26 C          17.8310   35.5076    5.6741 C.ar    1  UNL1        0.1003
     27 C          19.1215   35.0058    5.8452 C.ar    1  UNL1        0.0204
     28 C          19.6345   34.8745    7.1355 C.ar    1  UNL1        0.0001
     29 N          17.0885   35.8616    6.7568 N.ar    1  UNL1       -0.2294
@<TRIPOS>BOND
     1    23    24    1
     2    25    29   ar
     3    25    21    1
     4    26    27   ar
     5    28    24   ar
     6     2     6   ar
     7     3     4   ar
     8     5     1   ar
     9     7     4    1
    10     7     8    1
    11     8     9    1
    12     9    10    1
    13    10    13    1
    14    11    13    1
    15    11     7    1
    16    12    15    1
    17    16    19   ar
    18    17    20   ar
    19    18    15   ar
    20    21     1    1
    21    13    12   am
    22    24    25   ar
    23    26    29   ar
    24    27    28   ar
    25     1     6   ar
    26     2     3   ar
    27     4     5   ar
    28    12    14    2
    29    15    16   ar
    30    17    19   ar
    31    18    20   ar
    32    21    22    1
