@<TRIPOS>MOLECULE
MolPort-006-464-510 ChemDiv-V018-5277 MCULE-9359605537 PubChem-1029278 ZINC000000696954 ZINC00696954
 29 32 0 0 0
SMALL
GASTEIGER

@<TRIPOS>ATOM
      1 C          10.6780   39.6198    4.4683 C.ar    1  UNL1        0.3383
      2 C           9.2761   40.7648    5.5231 C.ar    1  UNL1        0.1681
      3 N          11.0007   39.4892    5.7703 N.ar    1  UNL1       -0.1077
      4 N          10.1178   40.2159    6.4326 N.ar    1  UNL1       -0.2081
      5 N           9.6067   40.4129    4.2641 N.ar    1  UNL1       -0.1739
      6 C           8.1003   41.6015    5.8256 C.ar    1  UNL1        0.0321
      7 C           8.2333   42.9936    5.7457 C.ar    1  UNL1        0.0027
      8 C           7.1443   43.8259    6.0162 C.ar    1  UNL1        0.0001
      9 C           5.9097   43.2712    6.3582 C.ar    1  UNL1       -0.0003
     10 C           5.7601   41.8836    6.4203 C.ar    1  UNL1       -0.0042
     11 C           6.8447   41.0427    6.1508 C.ar    1  UNL1       -0.0189
     12 C           6.6231   39.5674    6.1806 C.3     1  UNL1        0.0311
     13 C          10.1725   40.4108    7.8578 C.ar    1  UNL1        0.0847
     14 C           9.1002   40.9872    8.5550 C.ar    1  UNL1        0.0205
     15 C           9.1803   41.1983    9.9335 C.ar    1  UNL1        0.0162
     16 C          10.3373   40.8503   10.6363 C.ar    1  UNL1        0.0504
     17 C          11.4168   40.2854    9.9421 C.ar    1  UNL1        0.0162
     18 C          11.3360   40.0720    8.5635 C.ar    1  UNL1        0.0205
     19 C           9.3188   41.5929   12.8726 C.2     1  UNL1        0.2256
     20 O           8.1924   41.8632   12.3796 O.2     1  UNL1       -0.2748
     21 N          10.3790   41.0782   12.0511 N.am    1  UNL1       -0.2839
     22 H          11.2232   40.8590   12.5078 H       1  UNL1        0.1549
     23 C           9.5349   41.8152   14.3392 C.3     1  UNL1        0.0768
     24 C           8.2893   41.4768   15.1381 C.3     1  UNL1        0.0091
     25 C           9.0136   40.3050   15.7723 C.3     1  UNL1        0.0010
     26 C          10.2559   40.6382   14.9683 C.3     1  UNL1        0.0091
     27 O          11.3731   39.0061    3.4281 O.3     1  UNL1       -0.4457
     28 C           9.8633   37.1550    3.2576 C.3     1  UNL1        0.0513
     29 C          11.3085   37.6046    3.2170 C.3     1  UNL1        0.2089
@<TRIPOS>BOND
     1    28    29    1
     2    29    27    1
     3     1    27    1
     4     1     5   ar
     5     2     6    1
     6     7     8   ar
     7     9    10   ar
     8    11     6   ar
     9    12    11    1
    10    14    15   ar
    11    16    21    1
    12    16    17   ar
    13    23    19    1
    14    23    24    1
    15    24    25    1
    16    25    26    1
    17    26    23    1
    18    18    13   ar
    19     4     3   ar
    20     4     2   ar
    21     4    13    1
    22    21    19   am
    23     1     3   ar
    24     2     5   ar
    25     6     7   ar
    26     8     9   ar
    27    10    11   ar
    28    13    14   ar
    29    15    16   ar
    30    19    20    2
    31    17    18   ar
    32    21    22    1
@<TRIPOS>MOLECULE
MolPort-006-464-510 ChemDiv-V018-5277 MCULE-9359605537 PubChem-1029278 ZINC000000696954 ZINC00696954
 29 32 0 0 0
SMALL
GASTEIGER

@<TRIPOS>ATOM
      1 C          13.6903   38.7154    8.2120 C.ar    1  UNL1        0.3383
      2 C          12.2457   39.4380    6.8779 C.ar    1  UNL1        0.1681
      3 N          12.6656   39.1439    8.9755 N.ar    1  UNL1       -0.1077
      4 N          11.7582   39.6031    8.1316 N.ar    1  UNL1       -0.2081
      5 N          13.4745   38.8829    6.8915 N.ar    1  UNL1       -0.1739
      6 C          11.5379   39.7570    5.6244 C.ar    1  UNL1        0.0321
      7 C          10.9725   41.0306    5.4826 C.ar    1  UNL1        0.0027
      8 C          10.2990   41.3801    4.3096 C.ar    1  UNL1        0.0001
      9 C          10.1954   40.4611    3.2638 C.ar    1  UNL1       -0.0003
     10 C          10.7738   39.1953    3.3860 C.ar    1  UNL1       -0.0042
     11 C          11.4502   38.8369    4.5565 C.ar    1  UNL1       -0.0189
     12 C          12.0943   37.4924    4.6203 C.3     1  UNL1        0.0311
     13 C          10.5381   40.2363    8.5591 C.ar    1  UNL1        0.0847
     14 C           9.8526   41.1323    7.7252 C.ar    1  UNL1        0.0205
     15 C           8.6865   41.7627    8.1658 C.ar    1  UNL1        0.0162
     16 C           8.1933   41.5196    9.4507 C.ar    1  UNL1        0.0504
     17 C           8.8816   40.6345   10.2928 C.ar    1  UNL1        0.0162
     18 C          10.0469   40.0020    9.8514 C.ar    1  UNL1        0.0205
     19 C           6.0907   42.9319    9.0328 C.2     1  UNL1        0.2256
     20 O           6.2896   43.0352    7.7940 O.2     1  UNL1       -0.2748
     21 N           6.9910   42.1821    9.8642 N.am    1  UNL1       -0.2839
     22 H           6.7578   42.1164   10.8184 H       1  UNL1        0.1549
     23 C           4.8908   43.6050    9.6279 C.3     1  UNL1        0.0768
     24 C           3.6959   43.5287    8.6950 C.3     1  UNL1        0.0091
     25 C           2.9851   42.6193    9.6786 C.3     1  UNL1        0.0010
     26 C           4.1821   42.6890   10.6076 C.3     1  UNL1        0.0091
     27 O          14.8608   38.1568    8.7215 O.3     1  UNL1       -0.4457
     28 C          13.4631   36.3336    9.3979 C.3     1  UNL1        0.0513
     29 C          14.8809   36.8500    9.2738 C.3     1  UNL1        0.2089
@<TRIPOS>BOND
     1    28    29    1
     2    29    27    1
     3     1    27    1
     4     1     5   ar
     5     2     6    1
     6     7     8   ar
     7     9    10   ar
     8    11     6   ar
     9    12    11    1
    10    14    15   ar
    11    16    21    1
    12    16    17   ar
    13    23    19    1
    14    23    24    1
    15    24    25    1
    16    25    26    1
    17    26    23    1
    18    18    13   ar
    19     4     3   ar
    20     4     2   ar
    21     4    13    1
    22    21    19   am
    23     1     3   ar
    24     2     5   ar
    25     6     7   ar
    26     8     9   ar
    27    10    11   ar
    28    13    14   ar
    29    15    16   ar
    30    19    20    2
    31    17    18   ar
    32    21    22    1
@<TRIPOS>MOLECULE
MolPort-006-464-510 ChemDiv-V018-5277 MCULE-9359605537 PubChem-1029278 ZINC000000696954 ZINC00696954
 29 32 0 0 0
SMALL
GASTEIGER

@<TRIPOS>ATOM
      1 C          16.8939   39.9520    9.9702 C.ar    1  UNL1        0.3383
      2 C          15.7938   41.2259    8.7228 C.ar    1  UNL1        0.1681
      3 N          15.6115   39.5498   10.0719 N.ar    1  UNL1       -0.1077
      4 N          14.9197   40.3578    9.2877 N.ar    1  UNL1       -0.2081
      5 N          17.0565   41.0016    9.1393 N.ar    1  UNL1       -0.1739
      6 C          15.4633   42.2649    7.7302 C.ar    1  UNL1        0.0321
      7 C          14.3109   42.1012    6.9509 C.ar    1  UNL1        0.0027
      8 C          13.9540   43.0635    6.0032 C.ar    1  UNL1        0.0001
      9 C          14.7420   44.2037    5.8351 C.ar    1  UNL1       -0.0003
     10 C          15.8819   44.3875    6.6215 C.ar    1  UNL1       -0.0042
     11 C          16.2466   43.4295    7.5730 C.ar    1  UNL1       -0.0189
     12 C          17.4437   43.6942    8.4235 C.3     1  UNL1        0.0311
     13 C          13.4845   40.3133    9.1853 C.ar    1  UNL1        0.0847
     14 C          12.8506   39.6160    8.1461 C.ar    1  UNL1        0.0205
     15 C          11.4576   39.6077    8.0423 C.ar    1  UNL1        0.0162
     16 C          10.6753   40.3065    8.9659 C.ar    1  UNL1        0.0504
     17 C          11.3045   41.0155    9.9993 C.ar    1  UNL1        0.0162
     18 C          12.6979   41.0220   10.1047 C.ar    1  UNL1        0.0205
     19 C           8.3981   41.3385    8.3831 C.2     1  UNL1        0.2256
     20 O           8.8829   42.4435    8.0244 O.2     1  UNL1       -0.2748
     21 N           9.2487   40.2698    8.8284 N.am    1  UNL1       -0.2839
     22 H           8.8052   39.4229    9.0638 H       1  UNL1        0.1549
     23 C           6.9112   41.1548    8.3344 C.3     1  UNL1        0.0768
     24 C           6.2847   41.3592    9.7018 C.3     1  UNL1        0.0091
     25 C           5.5911   42.6101    9.1978 C.3     1  UNL1        0.0010
     26 C           6.2231   42.4104    7.8334 C.3     1  UNL1        0.0091
     27 O          17.9536   39.3555   10.6505 O.3     1  UNL1       -0.4457
     28 C          18.7315   37.0920   10.7306 C.3     1  UNL1        0.0513
     29 C          18.8137   38.4234   10.0145 C.3     1  UNL1        0.2089
@<TRIPOS>BOND
     1    28    29    1
     2    29    27    1
     3     1    27    1
     4     1     5   ar
     5     2     6    1
     6     7     8   ar
     7     9    10   ar
     8    11     6   ar
     9    12    11    1
    10    14    15   ar
    11    16    21    1
    12    16    17   ar
    13    23    19    1
    14    23    24    1
    15    24    25    1
    16    25    26    1
    17    26    23    1
    18    18    13   ar
    19     4     3   ar
    20     4     2   ar
    21     4    13    1
    22    21    19   am
    23     1     3   ar
    24     2     5   ar
    25     6     7   ar
    26     8     9   ar
    27    10    11   ar
    28    13    14   ar
    29    15    16   ar
    30    19    20    2
    31    17    18   ar
    32    21    22    1
@<TRIPOS>MOLECULE
MolPort-006-464-510 ChemDiv-V018-5277 MCULE-9359605537 PubChem-1029278 ZINC000000696954 ZINC00696954
 29 32 0 0 0
SMALL
GASTEIGER

@<TRIPOS>ATOM
      1 C          14.1874   42.6959    6.8345 C.ar    1  UNL1        0.3383
      2 C          13.7889   41.3952    8.4277 C.ar    1  UNL1        0.1681
      3 N          12.9212   42.9572    7.2152 N.ar    1  UNL1       -0.1077
      4 N          12.6713   42.1323    8.2170 N.ar    1  UNL1       -0.2081
      5 N          14.7702   41.7219    7.5625 N.ar    1  UNL1       -0.1739
      6 C          13.9765   40.3910    9.4909 C.ar    1  UNL1        0.0321
      7 C          15.1180   39.5803    9.4495 C.ar    1  UNL1        0.0027
      8 C          15.3414   38.6204   10.4397 C.ar    1  UNL1        0.0001
      9 C          14.4292   38.4713   11.4860 C.ar    1  UNL1       -0.0003
     10 C          13.2980   39.2888   11.5487 C.ar    1  UNL1       -0.0042
     11 C          13.0665   40.2527   10.5621 C.ar    1  UNL1       -0.0189
     12 C          11.8715   41.1355   10.6994 C.3     1  UNL1        0.0311
     13 C          11.3825   42.0353    8.8510 C.ar    1  UNL1        0.0847
     14 C          10.4138   41.1289    8.3950 C.ar    1  UNL1        0.0205
     15 C           9.1566   41.0679    9.0009 C.ar    1  UNL1        0.0162
     16 C           8.8411   41.9202   10.0627 C.ar    1  UNL1        0.0504
     17 C           9.8015   42.8368   10.5142 C.ar    1  UNL1        0.0162
     18 C          11.0600   42.8964    9.9098 C.ar    1  UNL1        0.0205
     19 C           6.2837   41.7148    9.9764 C.2     1  UNL1        0.2256
     20 O           6.2349   41.6557    8.7199 O.2     1  UNL1       -0.2748
     21 N           7.5419   41.8239   10.6612 N.am    1  UNL1       -0.2839
     22 H           7.5085   41.8335   11.6451 H       1  UNL1        0.1549
     23 C           5.0006   41.6657   10.7499 C.3     1  UNL1        0.0768
     24 C           3.8738   41.0870    9.9135 C.3     1  UNL1        0.0091
     25 C           3.8232   39.8727   10.8206 C.3     1  UNL1        0.0010
     26 C           4.9544   40.4471   11.6520 C.3     1  UNL1        0.0091
     27 O          14.8397   43.3550    5.7944 O.3     1  UNL1       -0.4457
     28 C          17.1826   43.8464    5.8634 C.3     1  UNL1        0.0513
     29 C          15.7802   44.3877    6.0438 C.3     1  UNL1        0.2089
@<TRIPOS>BOND
     1    28    29    1
     2    29    27    1
     3     1    27    1
     4     1     5   ar
     5     2     6    1
     6     7     8   ar
     7     9    10   ar
     8    11     6   ar
     9    12    11    1
    10    14    15   ar
    11    16    21    1
    12    16    17   ar
    13    23    19    1
    14    23    24    1
    15    24    25    1
    16    25    26    1
    17    26    23    1
    18    18    13   ar
    19     4     3   ar
    20     4     2   ar
    21     4    13    1
    22    21    19   am
    23     1     3   ar
    24     2     5   ar
    25     6     7   ar
    26     8     9   ar
    27    10    11   ar
    28    13    14   ar
    29    15    16   ar
    30    19    20    2
    31    17    18   ar
    32    21    22    1
@<TRIPOS>MOLECULE
MolPort-006-464-510 ChemDiv-V018-5277 MCULE-9359605537 PubChem-1029278 ZINC000000696954 ZINC00696954
 29 32 0 0 0
SMALL
GASTEIGER

@<TRIPOS>ATOM
      1 C          13.5374   39.2269    9.1202 C.ar    1  UNL1        0.3383
      2 C          12.0887   40.0435    7.8461 C.ar    1  UNL1        0.1681
      3 N          12.4825   39.5239    9.9047 N.ar    1  UNL1       -0.1077
      4 N          11.5724   40.0428    9.0992 N.ar    1  UNL1       -0.2081
      5 N          13.3387   39.5384    7.8234 N.ar    1  UNL1       -0.1739
      6 C          11.3912   40.4786    6.6222 C.ar    1  UNL1        0.0321
      7 C          10.8576   41.7731    6.5823 C.ar    1  UNL1        0.0027
      8 C          10.1950   42.2313    5.4409 C.ar    1  UNL1        0.0001
      9 C          10.0705   41.4012    4.3254 C.ar    1  UNL1       -0.0003
     10 C          10.6172   40.1157    4.3464 C.ar    1  UNL1       -0.0042
     11 C          11.2825   39.6488    5.4845 C.ar    1  UNL1       -0.0189
     12 C          11.8931   38.2880    5.4410 C.3     1  UNL1        0.0311
     13 C          10.3199   40.5745    9.5692 C.ar    1  UNL1        0.0847
     14 C           9.2086   40.6777    8.7192 C.ar    1  UNL1        0.0205
     15 C           8.0091   41.2245    9.1812 C.ar    1  UNL1        0.0162
     16 C           7.9034   41.6898   10.4949 C.ar    1  UNL1        0.0504
     17 C           9.0151   41.6005   11.3449 C.ar    1  UNL1        0.0162
     18 C          10.2145   41.0514   10.8837 C.ar    1  UNL1        0.0205
     19 C           5.4306   42.3041   10.1826 C.2     1  UNL1        0.2256
     20 O           5.3564   41.8163    9.0244 O.2     1  UNL1       -0.2748
     21 N           6.6540   42.2398   10.9329 N.am    1  UNL1       -0.2839
     22 H           6.6322   42.6129   11.8437 H       1  UNL1        0.1549
     23 C           4.2136   42.9533   10.7697 C.3     1  UNL1        0.0768
     24 C           3.0251   42.8483    9.8313 C.3     1  UNL1        0.0091
     25 C           2.3292   41.9271   10.8146 C.3     1  UNL1        0.0010
     26 C           3.5200   42.0256   11.7491 C.3     1  UNL1        0.0091
     27 O          14.7204   38.6584    9.5882 O.3     1  UNL1       -0.4457
     28 C          16.1349   40.5619    9.2552 C.3     1  UNL1        0.0513
     29 C          15.7332   39.4452   10.1952 C.3     1  UNL1        0.2089
@<TRIPOS>BOND
     1    28    29    1
     2    29    27    1
     3     1    27    1
     4     1     5   ar
     5     2     6    1
     6     7     8   ar
     7     9    10   ar
     8    11     6   ar
     9    12    11    1
    10    14    15   ar
    11    16    21    1
    12    16    17   ar
    13    23    19    1
    14    23    24    1
    15    24    25    1
    16    25    26    1
    17    26    23    1
    18    18    13   ar
    19     4     3   ar
    20     4     2   ar
    21     4    13    1
    22    21    19   am
    23     1     3   ar
    24     2     5   ar
    25     6     7   ar
    26     8     9   ar
    27    10    11   ar
    28    13    14   ar
    29    15    16   ar
    30    19    20    2
    31    17    18   ar
    32    21    22    1
@<TRIPOS>MOLECULE
MolPort-006-464-510 ChemDiv-V018-5277 MCULE-9359605537 PubChem-1029278 ZINC000000696954 ZINC00696954
 29 32 0 0 0
SMALL
GASTEIGER

@<TRIPOS>ATOM
      1 C          17.8873   34.9901    1.8070 C.ar    1  UNL1        0.3383
      2 C          16.4941   34.2174    3.1674 C.ar    1  UNL1        0.1681
      3 N          18.2101   35.5179    3.0044 N.ar    1  UNL1       -0.1077
      4 N          17.3271   35.0324    3.8593 N.ar    1  UNL1       -0.2081
      5 N          16.8164   34.1722    1.8589 N.ar    1  UNL1       -0.1739
      6 C          15.3952   33.4164    3.7374 C.ar    1  UNL1        0.0321
      7 C          15.6511   32.0837    4.0847 C.ar    1  UNL1        0.0027
      8 C          14.6425   31.2889    4.6349 C.ar    1  UNL1        0.0001
      9 C          13.3718   31.8248    4.8525 C.ar    1  UNL1       -0.0003
     10 C          13.1113   33.1588    4.5295 C.ar    1  UNL1       -0.0042
     11 C          14.1150   33.9620    3.9786 C.ar    1  UNL1       -0.0189
     12 C          13.8033   35.3938    3.6971 C.3     1  UNL1        0.0311
     13 C          17.2748   35.4271    5.2427 C.ar    1  UNL1        0.0847
     14 C          18.4470   35.6208    5.9888 C.ar    1  UNL1        0.0205
     15 C          18.3799   35.9736    7.3387 C.ar    1  UNL1        0.0162
     16 C          17.1419   36.1253    7.9694 C.ar    1  UNL1        0.0504
     17 C          15.9673   35.9205    7.2314 C.ar    1  UNL1        0.0162
     18 C          16.0341   35.5698    5.8804 C.ar    1  UNL1        0.0205
     19 C          16.2229   37.4293    9.9807 C.2     1  UNL1        0.2256
     20 O          15.3194   38.0031    9.3179 O.2     1  UNL1       -0.2748
     21 N          17.1147   36.4928    9.3549 N.am    1  UNL1       -0.2839
     22 H          17.7770   36.0576    9.9390 H       1  UNL1        0.1549
     23 C          16.3507   37.7388   11.4418 C.3     1  UNL1        0.0768
     24 C          17.8051   37.7619   11.8758 C.3     1  UNL1        0.0091
     25 C          17.7050   39.2529   12.1342 C.3     1  UNL1        0.0010
     26 C          16.2539   39.2316   11.6931 C.3     1  UNL1        0.0091
     27 O          18.5788   35.2557    0.6268 O.3     1  UNL1       -0.4457
     28 C          19.2371   32.9790    0.2831 C.3     1  UNL1        0.0513
     29 C          19.6498   34.4328    0.1923 C.3     1  UNL1        0.2089
@<TRIPOS>BOND
     1    28    29    1
     2    29    27    1
     3     1    27    1
     4     1     5   ar
     5     2     6    1
     6     7     8   ar
     7     9    10   ar
     8    11     6   ar
     9    12    11    1
    10    14    15   ar
    11    16    21    1
    12    16    17   ar
    13    23    19    1
    14    23    24    1
    15    24    25    1
    16    25    26    1
    17    26    23    1
    18    18    13   ar
    19     4     3   ar
    20     4     2   ar
    21     4    13    1
    22    21    19   am
    23     1     3   ar
    24     2     5   ar
    25     6     7   ar
    26     8     9   ar
    27    10    11   ar
    28    13    14   ar
    29    15    16   ar
    30    19    20    2
    31    17    18   ar
    32    21    22    1
@<TRIPOS>MOLECULE
MolPort-006-464-510 ChemDiv-V018-5277 MCULE-9359605537 PubChem-1029278 ZINC000000696954 ZINC00696954
 29 32 0 0 0
SMALL
GASTEIGER

@<TRIPOS>ATOM
      1 C          14.2207   42.6972    6.7875 C.ar    1  UNL1        0.3383
      2 C          13.7622   41.4146    8.3792 C.ar    1  UNL1        0.1681
      3 N          12.9171   42.9022    7.0618 N.ar    1  UNL1       -0.1077
      4 N          12.6299   42.0887    8.0630 N.ar    1  UNL1       -0.2081
      5 N          14.7914   41.7710    7.5843 N.ar    1  UNL1       -0.1739
      6 C          13.9145   40.4458    9.4803 C.ar    1  UNL1        0.0321
      7 C          12.7649   39.8305    9.9918 C.ar    1  UNL1        0.0027
      8 C          12.8614   38.9005   11.0299 C.ar    1  UNL1        0.0001
      9 C          14.1112   38.5703   11.5574 C.ar    1  UNL1       -0.0003
     10 C          15.2663   39.1621   11.0406 C.ar    1  UNL1       -0.0042
     11 C          15.1792   40.0938   10.0012 C.ar    1  UNL1       -0.0189
     12 C          16.4441   40.6608    9.4489 C.3     1  UNL1        0.0311
     13 C          11.3015   41.9406    8.5976 C.ar    1  UNL1        0.0847
     14 C          10.8832   42.6715    9.7195 C.ar    1  UNL1        0.0205
     15 C           9.6013   42.4942   10.2455 C.ar    1  UNL1        0.0162
     16 C           8.7210   41.5745    9.6687 C.ar    1  UNL1        0.0504
     17 C           9.1387   40.8323    8.5547 C.ar    1  UNL1        0.0162
     18 C          10.4201   41.0112    8.0269 C.ar    1  UNL1        0.0205
     19 C           6.2370   42.1799    9.8995 C.2     1  UNL1        0.2256
     20 O           6.2690   43.0595    8.9995 O.2     1  UNL1       -0.2748
     21 N           7.4123   41.4248   10.2346 N.am    1  UNL1       -0.2839
     22 H           7.3081   40.7314   10.9257 H       1  UNL1        0.1549
     23 C           4.9446   41.9302   10.6167 C.3     1  UNL1        0.0768
     24 C           3.8160   42.7535   10.0229 C.3     1  UNL1        0.0091
     25 C           3.1484   41.4842    9.5300 C.3     1  UNL1        0.0010
     26 C           4.2800   40.6617   10.1164 C.3     1  UNL1        0.0091
     27 O          14.9197   43.3647    5.7838 O.3     1  UNL1       -0.4457
     28 C          17.0840   44.2116    6.3618 C.3     1  UNL1        0.0513
     29 C          15.6432   44.5561    6.0491 C.3     1  UNL1        0.2089
@<TRIPOS>BOND
     1    28    29    1
     2    29    27    1
     3     1    27    1
     4     1     5   ar
     5     2     6    1
     6     7     8   ar
     7     9    10   ar
     8    11     6   ar
     9    12    11    1
    10    14    15   ar
    11    16    21    1
    12    16    17   ar
    13    23    19    1
    14    23    24    1
    15    24    25    1
    16    25    26    1
    17    26    23    1
    18    18    13   ar
    19     4     3   ar
    20     4     2   ar
    21     4    13    1
    22    21    19   am
    23     1     3   ar
    24     2     5   ar
    25     6     7   ar
    26     8     9   ar
    27    10    11   ar
    28    13    14   ar
    29    15    16   ar
    30    19    20    2
    31    17    18   ar
    32    21    22    1
@<TRIPOS>MOLECULE
MolPort-006-464-510 ChemDiv-V018-5277 MCULE-9359605537 PubChem-1029278 ZINC000000696954 ZINC00696954
 29 32 0 0 0
SMALL
GASTEIGER

@<TRIPOS>ATOM
      1 C           7.9573   42.1054   12.4433 C.ar    1  UNL1        0.3383
      2 C           6.8873   42.5499   10.6979 C.ar    1  UNL1        0.1681
      3 N           8.6130   41.4863   11.4417 N.ar    1  UNL1       -0.1077
      4 N           7.9334   41.7647   10.3430 N.ar    1  UNL1       -0.2081
      5 N           6.8674   42.7811   12.0262 N.ar    1  UNL1       -0.1739
      6 C           5.9012   43.1467    9.7783 C.ar    1  UNL1        0.0321
      7 C           6.3481   44.0809    8.8351 C.ar    1  UNL1        0.0027
      8 C           5.4511   44.6668    7.9385 C.ar    1  UNL1        0.0001
      9 C           4.1007   44.3142    7.9712 C.ar    1  UNL1       -0.0003
     10 C           3.6477   43.3680    8.8938 C.ar    1  UNL1       -0.0042
     11 C           4.5385   42.7760    9.7949 C.ar    1  UNL1       -0.0189
     12 C           4.0170   41.7343   10.7272 C.3     1  UNL1        0.0311
     13 C           8.2624   41.2118    9.0552 C.ar    1  UNL1        0.0847
     14 C           9.5705   41.2689    8.5517 C.ar    1  UNL1        0.0205
     15 C           9.8681   40.7556    7.2871 C.ar    1  UNL1        0.0162
     16 C           8.8623   40.1896    6.4988 C.ar    1  UNL1        0.0504
     17 C           7.5506   40.1414    6.9923 C.ar    1  UNL1        0.0162
     18 C           7.2531   40.6527    8.2583 C.ar    1  UNL1        0.0205
     19 C          10.5318   39.4848    4.6807 C.2     1  UNL1        0.2256
     20 O          11.5475   39.7510    5.3752 O.2     1  UNL1       -0.2748
     21 N           9.2085   39.6694    5.2085 N.am    1  UNL1       -0.2839
     22 H           8.4607   39.4115    4.6225 H       1  UNL1        0.1549
     23 C          10.7277   38.9662    3.2879 C.3     1  UNL1        0.0768
     24 C          11.3223   37.5696    3.2976 C.3     1  UNL1        0.0091
     25 C          10.0304   37.0149    2.7292 C.3     1  UNL1        0.0010
     26 C           9.4332   38.4092    2.7267 C.3     1  UNL1        0.0091
     27 O           8.3521   42.0585   13.7788 O.3     1  UNL1       -0.4457
     28 C           8.9785   40.4064   15.3953 C.3     1  UNL1        0.0513
     29 C           9.4237   41.2335   14.2079 C.3     1  UNL1        0.2089
@<TRIPOS>BOND
     1    28    29    1
     2    29    27    1
     3     1    27    1
     4     1     5   ar
     5     2     6    1
     6     7     8   ar
     7     9    10   ar
     8    11     6   ar
     9    12    11    1
    10    14    15   ar
    11    16    21    1
    12    16    17   ar
    13    23    19    1
    14    23    24    1
    15    24    25    1
    16    25    26    1
    17    26    23    1
    18    18    13   ar
    19     4     3   ar
    20     4     2   ar
    21     4    13    1
    22    21    19   am
    23     1     3   ar
    24     2     5   ar
    25     6     7   ar
    26     8     9   ar
    27    10    11   ar
    28    13    14   ar
    29    15    16   ar
    30    19    20    2
    31    17    18   ar
    32    21    22    1
@<TRIPOS>MOLECULE
MolPort-006-464-510 ChemDiv-V018-5277 MCULE-9359605537 PubChem-1029278 ZINC000000696954 ZINC00696954
 29 32 0 0 0
SMALL
GASTEIGER

@<TRIPOS>ATOM
      1 C          15.8146   39.6479    9.6742 C.ar    1  UNL1        0.3383
      2 C          15.2412   41.2362    8.4343 C.ar    1  UNL1        0.1681
      3 N          14.4784   39.5415    9.5337 N.ar    1  UNL1       -0.1077
      4 N          14.1192   40.5471    8.7551 N.ar    1  UNL1       -0.2081
      5 N          16.3365   40.6969    9.0067 N.ar    1  UNL1       -0.1739
      6 C          15.3144   42.4006    7.5327 C.ar    1  UNL1        0.0321
      7 C          14.3288   42.5454    6.5480 C.ar    1  UNL1        0.0027
      8 C          14.3534   43.6368    5.6762 C.ar    1  UNL1        0.0001
      9 C          15.3589   44.5987    5.7900 C.ar    1  UNL1       -0.0003
     10 C          16.3348   44.4755    6.7819 C.ar    1  UNL1       -0.0042
     11 C          16.3178   43.3864    7.6593 C.ar    1  UNL1       -0.0189
     12 C          17.3514   43.3248    8.7338 C.3     1  UNL1        0.0311
     13 C          12.7468   40.8393    8.4335 C.ar    1  UNL1        0.0847
     14 C          12.1209   40.2585    7.3204 C.ar    1  UNL1        0.0205
     15 C          10.7979   40.5757    7.0033 C.ar    1  UNL1        0.0162
     16 C          10.0827   41.4882    7.7839 C.ar    1  UNL1        0.0504
     17 C          10.7078   42.0811    8.8902 C.ar    1  UNL1        0.0162
     18 C          12.0304   41.7622    9.2090 C.ar    1  UNL1        0.0205
     19 C           7.8980   42.8222    7.9773 C.2     1  UNL1        0.2256
     20 O           8.3495   43.6204    8.8398 O.2     1  UNL1       -0.2748
     21 N           8.7256   41.7840    7.4287 N.am    1  UNL1       -0.2839
     22 H           8.3179   41.2158    6.7358 H       1  UNL1        0.1549
     23 C           6.4763   42.9763    7.5280 C.3     1  UNL1        0.0768
     24 C           5.5111   42.3800    8.5365 C.3     1  UNL1        0.0091
     25 C           4.9812   43.7660    8.8498 C.3     1  UNL1        0.0010
     26 C           5.9510   44.3629    7.8478 C.3     1  UNL1        0.0091
     27 O          16.5904   38.7721   10.4311 O.3     1  UNL1       -0.4457
     28 C          14.7894   38.7005   12.0079 C.3     1  UNL1        0.0513
     29 C          16.0308   38.0077   11.4873 C.3     1  UNL1        0.2089
@<TRIPOS>BOND
     1    28    29    1
     2    29    27    1
     3     1    27    1
     4     1     5   ar
     5     2     6    1
     6     7     8   ar
     7     9    10   ar
     8    11     6   ar
     9    12    11    1
    10    14    15   ar
    11    16    21    1
    12    16    17   ar
    13    23    19    1
    14    23    24    1
    15    24    25    1
    16    25    26    1
    17    26    23    1
    18    18    13   ar
    19     4     3   ar
    20     4     2   ar
    21     4    13    1
    22    21    19   am
    23     1     3   ar
    24     2     5   ar
    25     6     7   ar
    26     8     9   ar
    27    10    11   ar
    28    13    14   ar
    29    15    16   ar
    30    19    20    2
    31    17    18   ar
    32    21    22    1
@<TRIPOS>MOLECULE
MolPort-006-464-510 ChemDiv-V018-5277 MCULE-9359605537 PubChem-1029278 ZINC000000696954 ZINC00696954
 29 32 0 0 0
SMALL
GASTEIGER

@<TRIPOS>ATOM
      1 C          14.3004   41.7097    7.9645 C.ar    1  UNL1        0.3383
      2 C          13.2066   40.1860    8.8976 C.ar    1  UNL1        0.1681
      3 N          13.0537   42.1962    8.1242 N.ar    1  UNL1       -0.1077
      4 N          12.3652   41.2315    8.7087 N.ar    1  UNL1       -0.2081
      5 N          14.4431   40.4523    8.4302 N.ar    1  UNL1       -0.1739
      6 C          12.8748   38.9183    9.5736 C.ar    1  UNL1        0.0321
      7 C          11.8471   38.1281    9.0432 C.ar    1  UNL1        0.0027
      8 C          11.5031   36.9155    9.6457 C.ar    1  UNL1        0.0001
      9 C          12.1925   36.4783   10.7783 C.ar    1  UNL1       -0.0003
     10 C          13.2332   37.2483   11.3035 C.ar    1  UNL1       -0.0042
     11 C          13.5847   38.4633   10.7066 C.ar    1  UNL1       -0.0189
     12 C          14.7355   39.2254   11.2735 C.3     1  UNL1        0.0311
     13 C          10.9535   41.3249    8.9746 C.ar    1  UNL1        0.0847
     14 C          10.0274   41.4986    7.9353 C.ar    1  UNL1        0.0205
     15 C           8.6634   41.6186    8.2117 C.ar    1  UNL1        0.0162
     16 C           8.2031   41.5811    9.5309 C.ar    1  UNL1        0.0504
     17 C           9.1259   41.4202   10.5743 C.ar    1  UNL1        0.0162
     18 C          10.4902   41.2978   10.2979 C.ar    1  UNL1        0.0205
     19 C           5.7319   41.2217    8.9357 C.2     1  UNL1        0.2256
     20 O           5.9799   40.5852    7.8782 O.2     1  UNL1       -0.2748
     21 N           6.7953   41.7029    9.7733 N.am    1  UNL1       -0.2839
     22 H           6.5293   42.1649   10.6009 H       1  UNL1        0.1549
     23 C           4.3012   41.4671    9.3096 C.3     1  UNL1        0.0768
     24 C           3.8587   40.5472   10.4331 C.3     1  UNL1        0.0091
     25 C           3.7283   41.7405   11.3598 C.3     1  UNL1        0.0010
     26 C           4.1778   42.6592   10.2396 C.3     1  UNL1        0.0091
     27 O          15.3448   42.4210    7.3771 O.3     1  UNL1       -0.4457
     28 C          17.1550   43.9192    7.8393 C.3     1  UNL1        0.0513
     29 C          16.6203   42.5110    7.9920 C.3     1  UNL1        0.2089
@<TRIPOS>BOND
     1    28    29    1
     2    29    27    1
     3     1    27    1
     4     1     5   ar
     5     2     6    1
     6     7     8   ar
     7     9    10   ar
     8    11     6   ar
     9    12    11    1
    10    14    15   ar
    11    16    21    1
    12    16    17   ar
    13    23    19    1
    14    23    24    1
    15    24    25    1
    16    25    26    1
    17    26    23    1
    18    18    13   ar
    19     4     3   ar
    20     4     2   ar
    21     4    13    1
    22    21    19   am
    23     1     3   ar
    24     2     5   ar
    25     6     7   ar
    26     8     9   ar
    27    10    11   ar
    28    13    14   ar
    29    15    16   ar
    30    19    20    2
    31    17    18   ar
    32    21    22    1
