@<TRIPOS>MOLECULE
MolPort-035-673-738 CSSS03437791417 MCULE-9220016163 PubChem-91938455
 32 34 0 0 0
SMALL
GASTEIGER

@<TRIPOS>ATOM
      1 C           6.6189   42.6152    7.6469 C.3     1  UNL1        0.2880
      2 C           6.2964   43.1912    6.2767 C.3     1  UNL1        0.0650
      3 C           8.9928   42.5456    8.4808 C.ar    1  UNL1        0.1542
      4 C           8.7461   43.5105    9.4622 C.ar    1  UNL1        0.0850
      5 C           6.3974   43.6900    8.6920 C.2     1  UNL1        0.2732
      6 C           9.7667   43.9070   10.3294 C.ar    1  UNL1        0.0190
      7 C          11.0377   43.3368   10.2154 C.ar    1  UNL1        0.0161
      8 C          11.2955   42.3683    9.2328 C.ar    1  UNL1        0.0535
      9 C          10.2659   41.9786    8.3687 C.ar    1  UNL1        0.0529
     10 O           7.9760   42.1433    7.6081 O.3     1  UNL1       -0.4618
     11 O           5.2673   44.2369    8.8052 O.2     1  UNL1       -0.2704
     12 N           7.4516   44.0908    9.5667 N.am    1  UNL1       -0.2783
     13 H           7.2806   44.7776   10.2511 H       1  UNL1        0.1551
     14 C          13.1235   40.6877    9.8678 C.2     1  UNL1        0.2707
     15 O          12.4700   40.1777   10.8158 O.2     1  UNL1       -0.2707
     16 N          12.5862   41.7614    9.0849 N.am    1  UNL1       -0.2808
     17 H          13.1631   42.1193    8.3719 H       1  UNL1        0.1550
     18 C          14.4955   40.1940    9.5802 C.3     1  UNL1        0.2898
     19 O          14.9099   40.6595    8.3026 O.3     1  UNL1       -0.4625
     20 C          15.7674   41.7521    8.1362 C.ar    1  UNL1        0.1729
     21 C          15.3569   42.8293    7.3349 C.ar    1  UNL1        0.1724
     22 C          16.2126   43.9306    7.1624 C.ar    1  UNL1        0.0400
     23 C          17.4641   43.9587    7.7816 C.ar    1  UNL1        0.0033
     24 C          17.8720   42.8874    8.5781 C.ar    1  UNL1        0.0033
     25 C          17.0283   41.7887    8.7550 C.ar    1  UNL1        0.0401
     26 C          13.7298   43.6550    5.6611 C.3     1  UNL1        0.2526
     27 O          14.0999   42.7847    6.7218 O.3     1  UNL1       -0.4684
     28 C           5.7038   41.4558    7.9323 C.2     1  UNL1        0.3623
     29 O           5.8601   40.3656    7.3153 O.2     1  UNL1       -0.2457
     30 O           4.7249   41.5686    8.9240 O.3     1  UNL1       -0.4458
     31 C           4.4189   41.8233   11.2873 C.3     1  UNL1        0.0513
     32 C           4.8342   40.8924   10.1674 C.3     1  UNL1        0.2087
@<TRIPOS>BOND
     1    31    32    1
     2    32    30    1
     3    28    30    1
     4     1    28    1
     5     1     2    1
     6     1    10    1
     7     1     5    1
     8     3    10    1
     9     4    12    1
    10     4     6   ar
    11     7     8   ar
    12     8    16    1
    13    18    14    1
    14    18    19    1
    15    20    19    1
    16    21    27    1
    17    21    22   ar
    18    26    27    1
    19    23    24   ar
    20    25    20   ar
    21     9     3   ar
    22    12     5   am
    23    16    14   am
    24    28    29    2
    25     3     4   ar
    26     5    11    2
    27     6     7   ar
    28     8     9   ar
    29    14    15    2
    30    20    21   ar
    31    22    23   ar
    32    24    25   ar
    33    12    13    1
    34    16    17    1
@<TRIPOS>MOLECULE
MolPort-035-673-738 CSSS03437791417 MCULE-9220016163 PubChem-91938455
 32 34 0 0 0
SMALL
GASTEIGER

@<TRIPOS>ATOM
      1 C           5.9068   42.0407    9.5433 C.3     1  UNL1        0.2880
      2 C           5.1121   43.3375    9.5306 C.3     1  UNL1        0.0650
      3 C           8.4148   42.0733    9.3331 C.ar    1  UNL1        0.1542
      4 C           8.5970   41.6508   10.6535 C.ar    1  UNL1        0.0850
      5 C           6.1407   41.6264   10.9820 C.2     1  UNL1        0.2732
      6 C           9.8850   41.4510   11.1554 C.ar    1  UNL1        0.0190
      7 C          10.9942   41.6739   10.3348 C.ar    1  UNL1        0.0161
      8 C          10.8218   42.0993    9.0085 C.ar    1  UNL1        0.0535
      9 C           9.5270   42.2969    8.5157 C.ar    1  UNL1        0.0529
     10 O           7.1280   42.2761    8.8228 O.3     1  UNL1       -0.4618
     11 O           5.1605   41.4375   11.7517 O.2     1  UNL1       -0.2704
     12 N           7.4628   41.4331   11.4839 N.am    1  UNL1       -0.2783
     13 H           7.5914   41.1454   12.4166 H       1  UNL1        0.1551
     14 C          12.2221   41.6610    6.9070 C.2     1  UNL1        0.2707
     15 O          11.4835   40.7336    6.4823 O.2     1  UNL1       -0.2707
     16 N          11.9350   42.3386    8.1369 N.am    1  UNL1       -0.2808
     17 H          12.5676   43.0411    8.4118 H       1  UNL1        0.1550
     18 C          13.4384   42.0337    6.1384 C.3     1  UNL1        0.2898
     19 O          14.1433   43.0557    6.8306 O.3     1  UNL1       -0.4625
     20 C          15.4634   42.9028    7.2672 C.ar    1  UNL1        0.1729
     21 C          16.4735   43.6820    6.6808 C.ar    1  UNL1        0.1724
     22 C          17.8023   43.5343    7.1136 C.ar    1  UNL1        0.0400
     23 C          18.1217   42.6201    8.1199 C.ar    1  UNL1        0.0033
     24 C          17.1173   41.8454    8.7025 C.ar    1  UNL1        0.0033
     25 C          15.7941   41.9854    8.2787 C.ar    1  UNL1        0.0401
     26 C          14.9877   45.4273    5.7445 C.3     1  UNL1        0.2526
     27 O          16.1358   44.5929    5.6739 O.3     1  UNL1       -0.4684
     28 C           5.1230   40.9647    8.8428 C.2     1  UNL1        0.3623
     29 O           4.0327   40.5606    9.3343 O.2     1  UNL1       -0.2457
     30 O           5.5719   40.4610    7.6183 O.3     1  UNL1       -0.4458
     31 C           7.4438   40.1472    6.1550 C.3     1  UNL1        0.0513
     32 C           6.5302   41.1493    6.8290 C.3     1  UNL1        0.2087
@<TRIPOS>BOND
     1    31    32    1
     2    32    30    1
     3    28    30    1
     4     1    28    1
     5     1     2    1
     6     1    10    1
     7     1     5    1
     8     3    10    1
     9     4    12    1
    10     4     6   ar
    11     7     8   ar
    12     8    16    1
    13    18    14    1
    14    18    19    1
    15    20    19    1
    16    21    27    1
    17    21    22   ar
    18    26    27    1
    19    23    24   ar
    20    25    20   ar
    21     9     3   ar
    22    12     5   am
    23    16    14   am
    24    28    29    2
    25     3     4   ar
    26     5    11    2
    27     6     7   ar
    28     8     9   ar
    29    14    15    2
    30    20    21   ar
    31    22    23   ar
    32    24    25   ar
    33    12    13    1
    34    16    17    1
@<TRIPOS>MOLECULE
MolPort-035-673-738 CSSS03437791417 MCULE-9220016163 PubChem-91938455
 32 34 0 0 0
SMALL
GASTEIGER

@<TRIPOS>ATOM
      1 C           4.6495   41.4803    9.8725 C.3     1  UNL1        0.2880
      2 C           3.6858   40.3134    9.7205 C.3     1  UNL1        0.0650
      3 C           6.5014   41.8377    8.2056 C.ar    1  UNL1        0.1542
      4 C           5.9107   42.9994    7.6991 C.ar    1  UNL1        0.0850
      5 C           4.0152   42.7180    9.2707 C.2     1  UNL1        0.2732
      6 C           6.5379   43.7189    6.6794 C.ar    1  UNL1        0.0190
      7 C           7.7595   43.2758    6.1648 C.ar    1  UNL1        0.0161
      8 C           8.3599   42.1103    6.6658 C.ar    1  UNL1        0.0535
      9 C           7.7227   41.3967    7.6872 C.ar    1  UNL1        0.0529
     10 O           5.8794   41.1111    9.2267 O.3     1  UNL1       -0.4618
     11 O           2.9041   43.1302    9.7003 O.2     1  UNL1       -0.2704
     12 N           4.6638   43.4394    8.2237 N.am    1  UNL1       -0.2783
     13 H           4.2429   44.2516    7.8600 H       1  UNL1        0.1551
     14 C          10.8765   41.6556    6.8368 C.2     1  UNL1        0.2707
     15 O          10.9949   42.1607    7.9843 O.2     1  UNL1       -0.2707
     16 N           9.6118   41.6245    6.1629 N.am    1  UNL1       -0.2808
     17 H           9.6017   41.2287    5.2615 H       1  UNL1        0.1550
     18 C          12.0795   41.1171    6.1501 C.3     1  UNL1        0.2898
     19 O          13.2245   41.3213    6.9673 O.3     1  UNL1       -0.4625
     20 C          14.1335   42.3622    6.7509 C.ar    1  UNL1        0.1729
     21 C          15.3193   42.4033    7.5016 C.ar    1  UNL1        0.1724
     22 C          16.2377   43.4458    7.2904 C.ar    1  UNL1        0.0400
     23 C          15.9778   44.4370    6.3415 C.ar    1  UNL1        0.0033
     24 C          14.7987   44.3959    5.5955 C.ar    1  UNL1        0.0033
     25 C          13.8802   43.3638    5.7987 C.ar    1  UNL1        0.0401
     26 C          14.5505   40.5232    8.9175 C.3     1  UNL1        0.2526
     27 O          15.5637   41.4023    8.4482 O.3     1  UNL1       -0.4684
     28 C           4.9158   41.7247   11.3327 C.2     1  UNL1        0.3623
     29 O           4.0386   42.2866   12.0458 O.2     1  UNL1       -0.2457
     30 O           6.1066   41.2724   11.9090 O.3     1  UNL1       -0.4458
     31 C           8.4500   41.1968   12.4054 C.3     1  UNL1        0.0513
     32 C           7.3217   41.9963   11.7881 C.3     1  UNL1        0.2087
@<TRIPOS>BOND
     1    31    32    1
     2    32    30    1
     3    28    30    1
     4     1    28    1
     5     1     2    1
     6     1    10    1
     7     1     5    1
     8     3    10    1
     9     4    12    1
    10     4     6   ar
    11     7     8   ar
    12     8    16    1
    13    18    14    1
    14    18    19    1
    15    20    19    1
    16    21    27    1
    17    21    22   ar
    18    26    27    1
    19    23    24   ar
    20    25    20   ar
    21     9     3   ar
    22    12     5   am
    23    16    14   am
    24    28    29    2
    25     3     4   ar
    26     5    11    2
    27     6     7   ar
    28     8     9   ar
    29    14    15    2
    30    20    21   ar
    31    22    23   ar
    32    24    25   ar
    33    12    13    1
    34    16    17    1
@<TRIPOS>MOLECULE
MolPort-035-673-738 CSSS03437791417 MCULE-9220016163 PubChem-91938455
 32 34 0 0 0
SMALL
GASTEIGER

@<TRIPOS>ATOM
      1 C          13.7752   37.6012   10.1875 C.3     1  UNL1        0.2880
      2 C          13.6516   36.1703   10.6882 C.3     1  UNL1        0.0650
      3 C          11.7296   39.0399    9.9028 C.ar    1  UNL1        0.1542
      4 C          12.0890   39.8761   10.9643 C.ar    1  UNL1        0.0850
      5 C          14.1122   38.5004   11.3598 C.2     1  UNL1        0.2732
      6 C          11.2835   40.9654   11.3040 C.ar    1  UNL1        0.0190
      7 C          10.1154   41.2198   10.5800 C.ar    1  UNL1        0.0161
      8 C           9.7454   40.3856    9.5136 C.ar    1  UNL1        0.0535
      9 C          10.5594   39.2966    9.1820 C.ar    1  UNL1        0.0529
     10 O          12.5308   37.9465    9.5565 O.3     1  UNL1       -0.4618
     11 O          15.1486   38.2838   12.0439 O.2     1  UNL1       -0.2704
     12 N          13.2759   39.6058   11.7003 N.am    1  UNL1       -0.2783
     13 H          13.5236   40.1885   12.4542 H       1  UNL1        0.1551
     14 C           8.0309   41.8833    8.3362 C.2     1  UNL1        0.2707
     15 O           8.6015   42.9608    8.6511 O.2     1  UNL1       -0.2707
     16 N           8.5545   40.6143    8.7483 N.am    1  UNL1       -0.2808
     17 H           8.0438   39.8173    8.4780 H       1  UNL1        0.1550
     18 C           6.7668   41.9293    7.5558 C.3     1  UNL1        0.2898
     19 O           5.8073   42.7143    8.2513 O.3     1  UNL1       -0.4625
     20 C           5.0911   42.2344    9.3528 C.ar    1  UNL1        0.1729
     21 C           3.7698   42.6656    9.5515 C.ar    1  UNL1        0.1724
     22 C           3.0435   42.1885   10.6559 C.ar    1  UNL1        0.0400
     23 C           3.6270   41.2911   11.5529 C.ar    1  UNL1        0.0033
     24 C           4.9407   40.8627   11.3551 C.ar    1  UNL1        0.0033
     25 C           5.6701   41.3318   10.2606 C.ar    1  UNL1        0.0401
     26 C           3.8862   44.7155    8.1677 C.3     1  UNL1        0.2526
     27 O           3.2008   43.5650    8.6432 O.3     1  UNL1       -0.4684
     28 C          14.8808   37.6836    9.1707 C.2     1  UNL1        0.3623
     29 O          15.4358   38.7925    8.9347 O.2     1  UNL1       -0.2457
     30 O          15.3328   36.5220    8.5374 O.3     1  UNL1       -0.4458
     31 C          17.3209   36.7214    9.8607 C.3     1  UNL1        0.0513
     32 C          16.6772   36.0802    8.6492 C.3     1  UNL1        0.2087
@<TRIPOS>BOND
     1    31    32    1
     2    32    30    1
     3    28    30    1
     4     1    28    1
     5     1     2    1
     6     1    10    1
     7     1     5    1
     8     3    10    1
     9     4    12    1
    10     4     6   ar
    11     7     8   ar
    12     8    16    1
    13    18    14    1
    14    18    19    1
    15    20    19    1
    16    21    27    1
    17    21    22   ar
    18    26    27    1
    19    23    24   ar
    20    25    20   ar
    21     9     3   ar
    22    12     5   am
    23    16    14   am
    24    28    29    2
    25     3     4   ar
    26     5    11    2
    27     6     7   ar
    28     8     9   ar
    29    14    15    2
    30    20    21   ar
    31    22    23   ar
    32    24    25   ar
    33    12    13    1
    34    16    17    1
@<TRIPOS>MOLECULE
MolPort-035-673-738 CSSS03437791417 MCULE-9220016163 PubChem-91938455
 32 34 0 0 0
SMALL
GASTEIGER

@<TRIPOS>ATOM
      1 C           6.2200   42.3392    9.5007 C.3     1  UNL1        0.2880
      2 C           5.7992   43.7603    9.1589 C.3     1  UNL1        0.0650
      3 C           8.6280   41.8009    9.9985 C.ar    1  UNL1        0.1542
      4 C           8.3612   41.5471   11.3474 C.ar    1  UNL1        0.0850
      5 C           5.9738   42.0995   10.9766 C.2     1  UNL1        0.2732
      6 C           9.3905   41.1510   12.2043 C.ar    1  UNL1        0.0190
      7 C          10.6904   41.0077   11.7112 C.ar    1  UNL1        0.0161
      8 C          10.9685   41.2613   10.3591 C.ar    1  UNL1        0.0535
      9 C           9.9299   41.6581    9.5092 C.ar    1  UNL1        0.0529
     10 O           7.6026   42.1985    9.1336 O.3     1  UNL1       -0.4618
     11 O           4.8158   42.2405   11.4543 O.2     1  UNL1       -0.2704
     12 N           7.0367   41.7022   11.8425 N.am    1  UNL1       -0.2783
     13 H           6.8508   41.5334   12.7944 H       1  UNL1        0.1551
     14 C          12.6314   40.7398    8.4797 C.2     1  UNL1        0.2707
     15 O          11.7441   40.4544    7.6329 O.2     1  UNL1       -0.2707
     16 N          12.2891   41.1256    9.8170 N.am    1  UNL1       -0.2808
     17 H          13.0381   41.3172   10.4265 H       1  UNL1        0.1550
     18 C          14.0638   40.6359    8.0972 C.3     1  UNL1        0.2898
     19 O          14.4027   41.7086    7.2282 O.3     1  UNL1       -0.4625
     20 C          15.5735   42.4601    7.3735 C.ar    1  UNL1        0.1729
     21 C          16.5190   42.0757    8.3376 C.ar    1  UNL1        0.1724
     22 C          17.6978   42.8254    8.4901 C.ar    1  UNL1        0.0400
     23 C          17.9324   43.9463    7.6906 C.ar    1  UNL1        0.0033
     24 C          16.9920   44.3283    6.7324 C.ar    1  UNL1        0.0033
     25 C          15.8177   43.5893    6.5740 C.ar    1  UNL1        0.0401
     26 C          17.2880   40.2757    9.8539 C.3     1  UNL1        0.2526
     27 O          16.2680   40.9501    9.1300 O.3     1  UNL1       -0.4684
     28 C           5.3981   41.3659    8.7005 C.2     1  UNL1        0.3623
     29 O           5.9702   40.4552    8.0396 O.2     1  UNL1       -0.2457
     30 O           4.0024   41.4338    8.7420 O.3     1  UNL1       -0.4458
     31 C           2.2875   41.4541   10.4162 C.3     1  UNL1        0.0513
     32 C           3.2352   40.6015    9.5987 C.3     1  UNL1        0.2087
@<TRIPOS>BOND
     1    31    32    1
     2    32    30    1
     3    28    30    1
     4     1    28    1
     5     1     2    1
     6     1    10    1
     7     1     5    1
     8     3    10    1
     9     4    12    1
    10     4     6   ar
    11     7     8   ar
    12     8    16    1
    13    18    14    1
    14    18    19    1
    15    20    19    1
    16    21    27    1
    17    21    22   ar
    18    26    27    1
    19    23    24   ar
    20    25    20   ar
    21     9     3   ar
    22    12     5   am
    23    16    14   am
    24    28    29    2
    25     3     4   ar
    26     5    11    2
    27     6     7   ar
    28     8     9   ar
    29    14    15    2
    30    20    21   ar
    31    22    23   ar
    32    24    25   ar
    33    12    13    1
    34    16    17    1
@<TRIPOS>MOLECULE
MolPort-035-673-738 CSSS03437791417 MCULE-9220016163 PubChem-91938455
 32 34 0 0 0
SMALL
GASTEIGER

@<TRIPOS>ATOM
      1 C           8.6145   40.5332    6.9116 C.3     1  UNL1        0.2880
      2 C          10.0189   40.2053    7.3950 C.3     1  UNL1        0.0650
      3 C           6.9258   41.5501    8.4769 C.ar    1  UNL1        0.1542
      4 C           6.9389   42.7744    7.8015 C.ar    1  UNL1        0.0850
      5 C           8.6371   41.8864    6.2299 C.2     1  UNL1        0.2732
      6 C           6.1184   43.8208    8.2286 C.ar    1  UNL1        0.0190
      7 C           5.2819   43.6427    9.3341 C.ar    1  UNL1        0.0161
      8 C           5.2624   42.4180   10.0193 C.ar    1  UNL1        0.0535
      9 C           6.0889   41.3762    9.5834 C.ar    1  UNL1        0.0529
     10 O           7.7450   40.4971    8.0556 O.3     1  UNL1       -0.4618
     11 O           9.3961   42.0833    5.2429 O.2     1  UNL1       -0.2704
     12 N           7.7985   42.9494    6.6817 N.am    1  UNL1       -0.2783
     13 H           7.8153   43.8147    6.2124 H       1  UNL1        0.1551
     14 C           2.9899   42.0790   11.1551 C.2     1  UNL1        0.2707
     15 O           2.3256   42.1848   10.0906 O.2     1  UNL1       -0.2707
     16 N           4.4183   42.1979   11.1574 N.am    1  UNL1       -0.2808
     17 H           4.8662   42.1205   12.0307 H       1  UNL1        0.1550
     18 C           2.2760   41.8668   12.4414 C.3     1  UNL1        0.2898
     19 O           1.1886   42.7772   12.5371 O.3     1  UNL1       -0.4625
     20 C           0.2411   42.7198   13.5646 C.ar    1  UNL1        0.1729
     21 C           0.1631   43.7776   14.4844 C.ar    1  UNL1        0.1724
     22 C          -0.7858   43.7276   15.5197 C.ar    1  UNL1        0.0400
     23 C          -1.6482   42.6354   15.6375 C.ar    1  UNL1        0.0033
     24 C          -1.5703   41.5838   14.7229 C.ar    1  UNL1        0.0033
     25 C          -0.6303   41.6249   13.6910 C.ar    1  UNL1        0.0401
     26 C           0.6918   46.1805   14.7626 C.3     1  UNL1        0.2526
     27 O           1.0348   44.8641   14.3517 O.3     1  UNL1       -0.4684
     28 C           8.1680   39.4915    5.9225 C.2     1  UNL1        0.3623
     29 O           7.3315   38.6124    6.2705 O.2     1  UNL1       -0.2457
     30 O           8.6317   39.5383    4.6044 O.3     1  UNL1       -0.4458
     31 C           9.6122   38.0412    3.0103 C.3     1  UNL1        0.0513
     32 C           9.8521   38.9262    4.2155 C.3     1  UNL1        0.2087
@<TRIPOS>BOND
     1    31    32    1
     2    32    30    1
     3    28    30    1
     4     1    28    1
     5     1     2    1
     6     1    10    1
     7     1     5    1
     8     3    10    1
     9     4    12    1
    10     4     6   ar
    11     7     8   ar
    12     8    16    1
    13    18    14    1
    14    18    19    1
    15    20    19    1
    16    21    27    1
    17    21    22   ar
    18    26    27    1
    19    23    24   ar
    20    25    20   ar
    21     9     3   ar
    22    12     5   am
    23    16    14   am
    24    28    29    2
    25     3     4   ar
    26     5    11    2
    27     6     7   ar
    28     8     9   ar
    29    14    15    2
    30    20    21   ar
    31    22    23   ar
    32    24    25   ar
    33    12    13    1
    34    16    17    1
@<TRIPOS>MOLECULE
MolPort-035-673-738 CSSS03437791417 MCULE-9220016163 PubChem-91938455
 32 34 0 0 0
SMALL
GASTEIGER

@<TRIPOS>ATOM
      1 C           7.4870   41.5276    7.0261 C.3     1  UNL1        0.2880
      2 C           7.1061   42.8724    6.4260 C.3     1  UNL1        0.0650
      3 C           9.5993   41.2776    8.3719 C.ar    1  UNL1        0.1542
      4 C           8.8951   41.0825    9.5640 C.ar    1  UNL1        0.0850
      5 C           6.7562   41.3566    8.3425 C.2     1  UNL1        0.2732
      6 C           9.5840   40.8513   10.7568 C.ar    1  UNL1        0.0190
      7 C          10.9812   40.8147   10.7578 C.ar    1  UNL1        0.0161
      8 C          11.6971   41.0105    9.5666 C.ar    1  UNL1        0.0535
      9 C          10.9970   41.2419    8.3771 C.ar    1  UNL1        0.0529
     10 O           8.9167   41.5101    7.1730 O.3     1  UNL1       -0.4618
     11 O           5.4970   41.4050    8.3763 O.2     1  UNL1       -0.2704
     12 N           7.4734   41.1284    9.5553 N.am    1  UNL1       -0.2783
     13 H           6.9778   41.0012   10.3964 H       1  UNL1        0.1551
     14 C          13.9854   40.0300   10.1761 C.2     1  UNL1        0.2707
     15 O          13.5147   39.1039   10.8878 O.2     1  UNL1       -0.2707
     16 N          13.1302   40.9805    9.5282 N.am    1  UNL1       -0.2808
     17 H          13.5725   41.6856    9.0025 H       1  UNL1        0.1550
     18 C          15.4590   40.1651   10.0373 C.3     1  UNL1        0.2898
     19 O          15.7809   40.5022    8.6944 O.3     1  UNL1       -0.4625
     20 C          16.2120   41.7781    8.3163 C.ar    1  UNL1        0.1729
     21 C          15.4707   42.4979    7.3658 C.ar    1  UNL1        0.1724
     22 C          15.8971   43.7802    6.9803 C.ar    1  UNL1        0.0400
     23 C          17.0498   44.3399    7.5359 C.ar    1  UNL1        0.0033
     24 C          17.7866   43.6239    8.4809 C.ar    1  UNL1        0.0033
     25 C          17.3705   42.3488    8.8697 C.ar    1  UNL1        0.0401
     26 C          13.2621   42.6935    6.2638 C.3     1  UNL1        0.2526
     27 O          14.3185   41.9221    6.8192 O.3     1  UNL1       -0.4684
     28 C           7.0762   40.4251    6.0887 C.2     1  UNL1        0.3623
     29 O           5.9635   39.8497    6.2449 O.2     1  UNL1       -0.2457
     30 O           7.8987   40.0847    5.0107 O.3     1  UNL1       -0.4458
     31 C          10.2221   39.8379    4.4767 C.3     1  UNL1        0.0513
     32 C           9.0187   39.2257    5.1625 C.3     1  UNL1        0.2087
@<TRIPOS>BOND
     1    31    32    1
     2    32    30    1
     3    28    30    1
     4     1    28    1
     5     1     2    1
     6     1    10    1
     7     1     5    1
     8     3    10    1
     9     4    12    1
    10     4     6   ar
    11     7     8   ar
    12     8    16    1
    13    18    14    1
    14    18    19    1
    15    20    19    1
    16    21    27    1
    17    21    22   ar
    18    26    27    1
    19    23    24   ar
    20    25    20   ar
    21     9     3   ar
    22    12     5   am
    23    16    14   am
    24    28    29    2
    25     3     4   ar
    26     5    11    2
    27     6     7   ar
    28     8     9   ar
    29    14    15    2
    30    20    21   ar
    31    22    23   ar
    32    24    25   ar
    33    12    13    1
    34    16    17    1
@<TRIPOS>MOLECULE
MolPort-035-673-738 CSSS03437791417 MCULE-9220016163 PubChem-91938455
 32 34 0 0 0
SMALL
GASTEIGER

@<TRIPOS>ATOM
      1 C           6.8151   41.9938    9.2197 C.3     1  UNL1        0.2880
      2 C           6.1528   41.7489   10.5669 C.3     1  UNL1        0.0650
      3 C           9.1234   41.1083    8.7474 C.ar    1  UNL1        0.1542
      4 C           8.6481   40.1780    7.8180 C.ar    1  UNL1        0.0850
      5 C           6.3295   40.9448    8.2399 C.2     1  UNL1        0.2732
      6 C           9.5394   39.3379    7.1466 C.ar    1  UNL1        0.0190
      7 C          10.9100   39.4284    7.4048 C.ar    1  UNL1        0.0161
      8 C          11.3968   40.3581    8.3368 C.ar    1  UNL1        0.0535
      9 C          10.4951   41.1947    9.0043 C.ar    1  UNL1        0.0529
     10 O           8.2372   41.9531    9.4243 O.3     1  UNL1       -0.4618
     11 O           5.0973   40.8259    8.0017 O.2     1  UNL1       -0.2704
     12 N           7.2510   40.0877    7.5664 N.am    1  UNL1       -0.2783
     13 H           6.9154   39.4258    6.9196 H       1  UNL1        0.1551
     14 C          13.4820   39.9529    9.7710 C.2     1  UNL1        0.2707
     15 O          12.8675   39.3209   10.6704 O.2     1  UNL1       -0.2707
     16 N          12.7954   40.4798    8.6285 N.am    1  UNL1       -0.2808
     17 H          13.3406   40.9768    7.9765 H       1  UNL1        0.1550
     18 C          14.9416   40.1923    9.9164 C.3     1  UNL1        0.2898
     19 O          15.5069   40.4693    8.6420 O.3     1  UNL1       -0.4625
     20 C          16.0522   41.7139    8.3097 C.ar    1  UNL1        0.1729
     21 C          15.3866   42.5269    7.3785 C.ar    1  UNL1        0.1724
     22 C          15.9279   43.7785    7.0390 C.ar    1  UNL1        0.0400
     23 C          17.1197   44.2159    7.6210 C.ar    1  UNL1        0.0033
     24 C          17.7814   43.4073    8.5467 C.ar    1  UNL1        0.0033
     25 C          17.2509   42.1619    8.8899 C.ar    1  UNL1        0.0401
     26 C          13.3185   42.9228    6.0758 C.3     1  UNL1        0.2526
     27 O          14.1937   42.0731    6.8050 O.3     1  UNL1       -0.4684
     28 C           6.4310   43.3566    8.7117 C.2     1  UNL1        0.3623
     29 O           7.0808   43.8801    7.7644 O.2     1  UNL1       -0.2457
     30 O           5.3175   44.0112    9.2467 O.3     1  UNL1       -0.4458
     31 C           3.8748   45.0331    7.6286 C.3     1  UNL1        0.0513
     32 C           4.0342   43.9230    8.6462 C.3     1  UNL1        0.2087
@<TRIPOS>BOND
     1    31    32    1
     2    32    30    1
     3    28    30    1
     4     1    28    1
     5     1     2    1
     6     1    10    1
     7     1     5    1
     8     3    10    1
     9     4    12    1
    10     4     6   ar
    11     7     8   ar
    12     8    16    1
    13    18    14    1
    14    18    19    1
    15    20    19    1
    16    21    27    1
    17    21    22   ar
    18    26    27    1
    19    23    24   ar
    20    25    20   ar
    21     9     3   ar
    22    12     5   am
    23    16    14   am
    24    28    29    2
    25     3     4   ar
    26     5    11    2
    27     6     7   ar
    28     8     9   ar
    29    14    15    2
    30    20    21   ar
    31    22    23   ar
    32    24    25   ar
    33    12    13    1
    34    16    17    1
@<TRIPOS>MOLECULE
MolPort-035-673-738 CSSS03437791417 MCULE-9220016163 PubChem-91938455
 32 34 0 0 0
SMALL
GASTEIGER

@<TRIPOS>ATOM
      1 C           7.8964   42.1907    8.0391 C.3     1  UNL1        0.2880
      2 C           7.0320   41.0856    8.6266 C.3     1  UNL1        0.0650
      3 C          10.3617   41.8337    7.6785 C.ar    1  UNL1        0.1542
      4 C          10.2265   41.8417    6.2868 C.ar    1  UNL1        0.0850
      5 C           7.7794   42.1503    6.5288 C.2     1  UNL1        0.2732
      6 C          11.3508   41.6951    5.4712 C.ar    1  UNL1        0.0190
      7 C          12.6142   41.5405    6.0486 C.ar    1  UNL1        0.0161
      8 C          12.7601   41.5301    7.4445 C.ar    1  UNL1        0.0535
      9 C          11.6270   41.6772    8.2525 C.ar    1  UNL1        0.0529
     10 O           9.2405   41.9795    8.5025 O.3     1  UNL1       -0.4618
     11 O           6.6507   42.2668    5.9798 O.2     1  UNL1       -0.2704
     12 N           8.9361   41.9924    5.7076 N.am    1  UNL1       -0.2783
     13 H           8.8395   41.9877    4.7278 H       1  UNL1        0.1551
     14 C          15.2287   42.1237    7.7955 C.2     1  UNL1        0.2707
     15 O          15.2464   43.0193    6.9104 O.2     1  UNL1       -0.2707
     16 N          14.0394   41.3733    8.0731 N.am    1  UNL1       -0.2808
     17 H          14.1079   40.6785    8.7671 H       1  UNL1        0.1550
     18 C          16.4763   41.8101    8.5399 C.3     1  UNL1        0.2898
     19 O          16.1538   41.1111    9.7348 O.3     1  UNL1       -0.4625
     20 C          16.6147   39.8181   10.0038 C.ar    1  UNL1        0.1729
     21 C          15.6845   38.7790   10.1653 C.ar    1  UNL1        0.1724
     22 C          16.1393   37.4772   10.4359 C.ar    1  UNL1        0.0400
     23 C          17.5065   37.2130   10.5444 C.ar    1  UNL1        0.0033
     24 C          18.4310   38.2464   10.3839 C.ar    1  UNL1        0.0033
     25 C          17.9881   39.5432   10.1149 C.ar    1  UNL1        0.0401
     26 C          13.5011   39.3638   11.1758 C.3     1  UNL1        0.2526
     27 O          14.3186   39.0612   10.0535 O.3     1  UNL1       -0.4684
     28 C           7.4103   43.5254    8.5345 C.2     1  UNL1        0.3623
     29 O           8.2346   44.4614    8.7292 O.2     1  UNL1       -0.2457
     30 O           6.0416   43.7444    8.7168 O.3     1  UNL1       -0.4458
     31 C           3.8356   44.5535    8.2447 C.3     1  UNL1        0.0513
     32 C           5.3042   44.6250    7.8825 C.3     1  UNL1        0.2087
@<TRIPOS>BOND
     1    31    32    1
     2    32    30    1
     3    28    30    1
     4     1    28    1
     5     1     2    1
     6     1    10    1
     7     1     5    1
     8     3    10    1
     9     4    12    1
    10     4     6   ar
    11     7     8   ar
    12     8    16    1
    13    18    14    1
    14    18    19    1
    15    20    19    1
    16    21    27    1
    17    21    22   ar
    18    26    27    1
    19    23    24   ar
    20    25    20   ar
    21     9     3   ar
    22    12     5   am
    23    16    14   am
    24    28    29    2
    25     3     4   ar
    26     5    11    2
    27     6     7   ar
    28     8     9   ar
    29    14    15    2
    30    20    21   ar
    31    22    23   ar
    32    24    25   ar
    33    12    13    1
    34    16    17    1
@<TRIPOS>MOLECULE
MolPort-035-673-738 CSSS03437791417 MCULE-9220016163 PubChem-91938455
 32 34 0 0 0
SMALL
GASTEIGER

@<TRIPOS>ATOM
      1 C          15.3563   38.7574   10.2704 C.3     1  UNL1        0.2880
      2 C          15.1730   38.7368   11.7801 C.3     1  UNL1        0.0650
      3 C          13.8862   40.1976    8.8210 C.ar    1  UNL1        0.1542
      4 C          14.9397   41.0556    8.4907 C.ar    1  UNL1        0.0850
      5 C          16.4650   39.7318    9.9271 C.2     1  UNL1        0.2732
      6 C          14.7248   42.1307    7.6255 C.ar    1  UNL1        0.0190
      7 C          13.4529   42.3486    7.0886 C.ar    1  UNL1        0.0161
      8 C          12.3887   41.4937    7.4150 C.ar    1  UNL1        0.0535
      9 C          12.6149   40.4197    8.2832 C.ar    1  UNL1        0.0529
     10 O          14.0931   39.1186    9.6872 O.3     1  UNL1       -0.4618
     11 O          17.6176   39.5728   10.4122 O.2     1  UNL1       -0.2704
     12 N          16.2293   40.8307    9.0473 N.am    1  UNL1       -0.2783
     13 H          16.9687   41.4408    8.8228 H       1  UNL1        0.1551
     14 C           9.8616   41.8609    7.6345 C.2     1  UNL1        0.2707
     15 O           9.8631   41.8391    8.8935 O.2     1  UNL1       -0.2707
     16 N          11.0704   41.6854    6.8844 N.am    1  UNL1       -0.2808
     17 H          10.9869   41.6978    5.9036 H       1  UNL1        0.1550
     18 C           8.5751   42.0317    6.9102 C.3     1  UNL1        0.2898
     19 O           7.4950   41.7195    7.7800 O.3     1  UNL1       -0.4625
     20 C           6.4121   42.5815    7.9824 C.ar    1  UNL1        0.1729
     21 C           5.5487   42.3540    9.0659 C.ar    1  UNL1        0.1724
     22 C           4.4583   43.2153    9.2761 C.ar    1  UNL1        0.0400
     23 C           4.2303   44.2919    8.4162 C.ar    1  UNL1        0.0033
     24 C           5.0889   44.5176    7.3390 C.ar    1  UNL1        0.0033
     25 C           6.1749   43.6668    7.1223 C.ar    1  UNL1        0.0401
     26 C           6.2841   41.4279   11.2412 C.3     1  UNL1        0.2526
     27 O           5.7918   41.2707    9.9175 O.3     1  UNL1       -0.4684
     28 C          15.7429   37.3843    9.7927 C.2     1  UNL1        0.3623
     29 O          16.7488   37.2398    9.0438 O.2     1  UNL1       -0.2457
     30 O          15.0258   36.2669   10.2306 O.3     1  UNL1       -0.4458
     31 C          12.7576   35.4932   10.2541 C.3     1  UNL1        0.0513
     32 C          14.0194   35.6609    9.4337 C.3     1  UNL1        0.2087
@<TRIPOS>BOND
     1    31    32    1
     2    32    30    1
     3    28    30    1
     4     1    28    1
     5     1     2    1
     6     1    10    1
     7     1     5    1
     8     3    10    1
     9     4    12    1
    10     4     6   ar
    11     7     8   ar
    12     8    16    1
    13    18    14    1
    14    18    19    1
    15    20    19    1
    16    21    27    1
    17    21    22   ar
    18    26    27    1
    19    23    24   ar
    20    25    20   ar
    21     9     3   ar
    22    12     5   am
    23    16    14   am
    24    28    29    2
    25     3     4   ar
    26     5    11    2
    27     6     7   ar
    28     8     9   ar
    29    14    15    2
    30    20    21   ar
    31    22    23   ar
    32    24    25   ar
    33    12    13    1
    34    16    17    1
