@<TRIPOS>MOLECULE
Molport-052-055-979 MCULE-7130697295 PubChem-110089784
 24 26 0 0 0
SMALL
GASTEIGER

@<TRIPOS>ATOM
      1 C          15.6926   41.9662    8.0270 C.ar    1  UNL1        0.1368
      2 C          13.4303   41.9059    7.3210 C.ar    1  UNL1        0.1411
      3 C          14.8329   43.6357    6.5279 C.ar    1  UNL1        0.0635
      4 C          15.8995   43.1169    7.2587 C.ar    1  UNL1        0.0492
      5 C          15.0217   44.8567    5.7025 C.3     1  UNL1        0.0522
      6 N          14.4620   41.3886    8.0391 N.ar    1  UNL1       -0.2158
      7 N          13.6211   43.0250    6.5702 N.ar    1  UNL1       -0.2349
      8 C          12.0960   41.2376    7.3641 C.3     1  UNL1        0.0744
      9 C          11.3509   41.6081    8.6454 C.3     1  UNL1        0.0104
     10 C          10.0352   40.8417    8.7308 C.3     1  UNL1        0.0176
     11 C          10.3042   39.3462    8.5800 C.3     1  UNL1        0.0686
     12 C          12.2504   39.7188    7.2699 C.3     1  UNL1        0.0761
     13 N          10.9361   39.0791    7.2888 N.3     1  UNL1       -0.2971
     14 H          10.3585   39.4588    6.5387 H       1  UNL1        0.1233
     15 N          16.7427   41.3747    8.8054 N.pl3   1  UNL1       -0.2679
     16 H          17.6234   41.8115    8.7522 H       1  UNL1        0.1565
     17 C          14.0932   38.6412   11.8433 C.3     1  UNL1        0.0522
     18 C          15.3721   38.8899   11.1286 C.ar    1  UNL1        0.0634
     19 C          16.4430   38.0131   11.2915 C.ar    1  UNL1        0.0296
     20 C          17.6253   38.2806   10.6044 C.ar    1  UNL1        0.0634
     21 C          16.6570   40.2204    9.6519 C.ar    1  UNL1        0.2211
     22 C          18.7918   37.3716   10.7497 C.3     1  UNL1        0.0522
     23 N          17.7116   39.3726    9.8015 N.ar    1  UNL1       -0.2179
     24 N          15.4972   39.9718   10.3163 N.ar    1  UNL1       -0.2179
@<TRIPOS>BOND
     1    17    18    1
     2    18    24   ar
     3    19    20   ar
     4    21    23   ar
     5    21    15    1
     6     2     6   ar
     7     3     7   ar
     8     4     1   ar
     9     5     3    1
    10     8     2    1
    11     8     9    1
    12     9    10    1
    13    10    11    1
    14    11    13    1
    15    12    13    1
    16    12     8    1
    17    22    20    1
    18    15     1    1
    19    18    19   ar
    20    20    23   ar
    21    21    24   ar
    22     1     6   ar
    23     2     7   ar
    24     3     4   ar
    25    15    16    1
    26    13    14    1
@<TRIPOS>MOLECULE
Molport-052-055-979 MCULE-7130697295 PubChem-110089784
 24 26 0 0 0
SMALL
GASTEIGER

@<TRIPOS>ATOM
      1 C          10.9556   41.2363    5.6406 C.ar    1  UNL1        0.1368
      2 C           8.9895   40.3875    6.6575 C.ar    1  UNL1        0.1411
      3 C           9.7021   39.4713    4.5981 C.ar    1  UNL1        0.0635
      4 C          10.7928   40.3379    4.5807 C.ar    1  UNL1        0.0492
      5 C           9.5023   38.5057    3.4865 C.3     1  UNL1        0.0522
      6 N          10.0492   41.2389    6.6537 N.ar    1  UNL1       -0.2158
      7 N           8.8221   39.5094    5.6311 N.ar    1  UNL1       -0.2349
      8 C           8.0194   40.4256    7.7916 C.3     1  UNL1        0.0744
      9 C           6.6901   41.0292    7.3413 C.3     1  UNL1        0.0104
     10 C           5.7411   41.1596    8.5279 C.3     1  UNL1        0.0176
     11 C           6.4277   41.9375    9.6483 C.3     1  UNL1        0.0686
     12 C           8.5889   41.2297    8.9615 C.3     1  UNL1        0.0761
     13 N           7.6395   41.2383   10.0732 N.3     1  UNL1       -0.2971
     14 H           7.4089   40.2798   10.3353 H       1  UNL1        0.1233
     15 N          12.0536   42.1585    5.6916 N.pl3   1  UNL1       -0.2679
     16 H          11.9982   42.9357    5.0898 H       1  UNL1        0.1565
     17 C          14.3943   39.9946    9.3739 C.3     1  UNL1        0.0522
     18 C          14.3627   41.0288    8.3074 C.ar    1  UNL1        0.0634
     19 C          15.4491   41.8843    8.1342 C.ar    1  UNL1        0.0296
     20 C          15.3813   42.8408    7.1233 C.ar    1  UNL1        0.0634
     21 C          13.2226   42.0782    6.5184 C.ar    1  UNL1        0.2211
     22 C          16.5175   43.7732    6.9043 C.3     1  UNL1        0.0522
     23 N          14.2764   42.9210    6.3376 N.ar    1  UNL1       -0.2179
     24 N          13.2749   41.1401    7.5010 N.ar    1  UNL1       -0.2179
@<TRIPOS>BOND
     1    17    18    1
     2    18    24   ar
     3    19    20   ar
     4    21    23   ar
     5    21    15    1
     6     2     6   ar
     7     3     7   ar
     8     4     1   ar
     9     5     3    1
    10     8     2    1
    11     8     9    1
    12     9    10    1
    13    10    11    1
    14    11    13    1
    15    12    13    1
    16    12     8    1
    17    22    20    1
    18    15     1    1
    19    18    19   ar
    20    20    23   ar
    21    21    24   ar
    22     1     6   ar
    23     2     7   ar
    24     3     4   ar
    25    15    16    1
    26    13    14    1
@<TRIPOS>MOLECULE
Molport-052-055-979 MCULE-7130697295 PubChem-110089784
 24 26 0 0 0
SMALL
GASTEIGER

@<TRIPOS>ATOM
      1 C          13.8218   39.8605    9.5102 C.ar    1  UNL1        0.1368
      2 C          11.5637   40.2801   10.0974 C.ar    1  UNL1        0.1411
      3 C          12.3062   38.0425    9.9235 C.ar    1  UNL1        0.0635
      4 C          13.5834   38.4840    9.5852 C.ar    1  UNL1        0.0492
      5 C          12.0222   36.5867   10.0112 C.3     1  UNL1        0.0522
      6 N          12.8052   40.7253    9.7684 N.ar    1  UNL1       -0.2158
      7 N          11.3213   38.9429   10.1732 N.ar    1  UNL1       -0.2349
      8 C          10.4777   41.2665   10.3731 C.3     1  UNL1        0.0744
      9 C           9.8402   40.9970   11.7352 C.3     1  UNL1        0.0104
     10 C           8.6656   41.9421   11.9642 C.3     1  UNL1        0.0176
     11 C           7.6917   41.8402   10.7926 C.3     1  UNL1        0.0686
     12 C           9.4113   41.2147    9.2777 C.3     1  UNL1        0.0761
     13 N           8.3672   42.2019    9.5473 N.3     1  UNL1       -0.2971
     14 H           8.7855   43.1276    9.6399 H       1  UNL1        0.1233
     15 N          15.1108   40.3897    9.1679 N.pl3   1  UNL1       -0.2679
     16 H          15.8891   39.9193    9.5451 H       1  UNL1        0.1565
     17 C          18.2039   43.9308    7.8975 C.3     1  UNL1        0.0522
     18 C          16.8967   43.2470    7.7198 C.ar    1  UNL1        0.0634
     19 C          15.9902   43.7130    6.7694 C.ar    1  UNL1        0.0296
     20 C          14.7751   43.0448    6.6329 C.ar    1  UNL1        0.0634
     21 C          15.3958   41.5250    8.3395 C.ar    1  UNL1        0.2211
     22 C          13.7798   43.5086    5.6317 C.3     1  UNL1        0.0522
     23 N          14.5004   41.9691    7.4152 N.ar    1  UNL1       -0.2179
     24 N          16.5854   42.1674    8.4836 N.ar    1  UNL1       -0.2179
@<TRIPOS>BOND
     1    17    18    1
     2    18    24   ar
     3    19    20   ar
     4    21    23   ar
     5    21    15    1
     6     2     6   ar
     7     3     7   ar
     8     4     1   ar
     9     5     3    1
    10     8     2    1
    11     8     9    1
    12     9    10    1
    13    10    11    1
    14    11    13    1
    15    12    13    1
    16    12     8    1
    17    22    20    1
    18    15     1    1
    19    18    19   ar
    20    20    23   ar
    21    21    24   ar
    22     1     6   ar
    23     2     7   ar
    24     3     4   ar
    25    15    16    1
    26    13    14    1
@<TRIPOS>MOLECULE
Molport-052-055-979 MCULE-7130697295 PubChem-110089784
 24 26 0 0 0
SMALL
GASTEIGER

@<TRIPOS>ATOM
      1 C          15.7686   41.9811    8.0059 C.ar    1  UNL1        0.1368
      2 C          13.5469   41.8832    7.1845 C.ar    1  UNL1        0.1411
      3 C          14.9321   43.6840    6.5316 C.ar    1  UNL1        0.0635
      4 C          15.9770   43.1676    7.2946 C.ar    1  UNL1        0.0492
      5 C          15.1231   44.9425    5.7651 C.3     1  UNL1        0.0522
      6 N          14.5576   41.3676    7.9332 N.ar    1  UNL1       -0.2158
      7 N          13.7395   43.0369    6.4886 N.ar    1  UNL1       -0.2349
      8 C          12.2338   41.1748    7.1339 C.3     1  UNL1        0.0744
      9 C          11.6347   41.2534    5.7307 C.3     1  UNL1        0.0104
     10 C          10.2485   40.6181    5.7126 C.3     1  UNL1        0.0176
     11 C           9.3799   41.2559    6.7945 C.3     1  UNL1        0.0686
     12 C          11.2601   41.7707    8.1519 C.3     1  UNL1        0.0761
     13 N           9.9876   41.0524    8.1087 N.3     1  UNL1       -0.2971
     14 H          10.1497   40.0570    8.2616 H       1  UNL1        0.1233
     15 N          16.7970   41.3895    8.8128 N.pl3   1  UNL1       -0.2679
     16 H          17.6790   41.8261    8.7835 H       1  UNL1        0.1565
     17 C          18.8880   37.4221   10.7123 C.3     1  UNL1        0.0522
     18 C          17.7012   38.3068   10.5818 C.ar    1  UNL1        0.0634
     19 C          16.5275   38.0038   11.2693 C.ar    1  UNL1        0.0296
     20 C          15.4365   38.8577   11.1210 C.ar    1  UNL1        0.0634
     21 C          16.6880   40.2355    9.6570 C.ar    1  UNL1        0.2211
     22 C          14.1657   38.5718   11.8361 C.3     1  UNL1        0.0522
     23 N          15.5347   39.9520   10.3225 N.ar    1  UNL1       -0.2179
     24 N          17.7605   39.4109    9.7923 N.ar    1  UNL1       -0.2179
@<TRIPOS>BOND
     1    17    18    1
     2    18    24   ar
     3    19    20   ar
     4    21    23   ar
     5    21    15    1
     6     2     6   ar
     7     3     7   ar
     8     4     1   ar
     9     5     3    1
    10     8     2    1
    11     8     9    1
    12     9    10    1
    13    10    11    1
    14    11    13    1
    15    12    13    1
    16    12     8    1
    17    22    20    1
    18    15     1    1
    19    18    19   ar
    20    20    23   ar
    21    21    24   ar
    22     1     6   ar
    23     2     7   ar
    24     3     4   ar
    25    15    16    1
    26    13    14    1
@<TRIPOS>MOLECULE
Molport-052-055-979 MCULE-7130697295 PubChem-110089784
 24 26 0 0 0
SMALL
GASTEIGER

@<TRIPOS>ATOM
      1 C          13.3517   42.1452    6.5141 C.ar    1  UNL1        0.1368
      2 C          14.7875   41.3546    8.2268 C.ar    1  UNL1        0.1411
      3 C          15.5051   43.1508    6.8678 C.ar    1  UNL1        0.0635
      4 C          14.3083   43.1013    6.1564 C.ar    1  UNL1        0.0492
      5 C          16.5404   44.1551    6.5113 C.3     1  UNL1        0.0522
      6 N          13.6151   41.2948    7.5414 N.ar    1  UNL1       -0.2158
      7 N          15.7247   42.2811    7.8868 N.ar    1  UNL1       -0.2349
      8 C          15.0333   40.4005    9.3484 C.3     1  UNL1        0.0744
      9 C          16.5234   40.3316    9.6782 C.3     1  UNL1        0.0104
     10 C          16.7778   39.2802   10.7531 C.3     1  UNL1        0.0176
     11 C          16.1771   37.9463   10.3154 C.3     1  UNL1        0.0686
     12 C          14.5113   39.0069    8.9950 C.3     1  UNL1        0.0761
     13 N          14.7364   38.0893   10.1107 N.3     1  UNL1       -0.2971
     14 H          14.3050   38.4638   10.9557 H       1  UNL1        0.1233
     15 N          12.0966   42.0341    5.8277 N.pl3   1  UNL1       -0.2679
     16 H          11.7873   42.8388    5.3522 H       1  UNL1        0.1565
     17 C           9.5721   38.9050    3.0788 C.3     1  UNL1        0.0522
     18 C          10.0131   39.3634    4.4217 C.ar    1  UNL1        0.0634
     19 C           9.5947   38.6814    5.5627 C.ar    1  UNL1        0.0296
     20 C          10.0296   39.1421    6.8037 C.ar    1  UNL1        0.0634
     21 C          11.2409   40.8857    5.7548 C.ar    1  UNL1        0.2211
     22 C           9.6072   38.4443    8.0459 C.3     1  UNL1        0.0522
     23 N          10.8401   40.2294    6.8782 N.ar    1  UNL1       -0.2179
     24 N          10.8241   40.4473    4.5372 N.ar    1  UNL1       -0.2179
@<TRIPOS>BOND
     1    17    18    1
     2    18    24   ar
     3    19    20   ar
     4    21    23   ar
     5    21    15    1
     6     2     6   ar
     7     3     7   ar
     8     4     1   ar
     9     5     3    1
    10     8     2    1
    11     8     9    1
    12     9    10    1
    13    10    11    1
    14    11    13    1
    15    12    13    1
    16    12     8    1
    17    22    20    1
    18    15     1    1
    19    18    19   ar
    20    20    23   ar
    21    21    24   ar
    22     1     6   ar
    23     2     7   ar
    24     3     4   ar
    25    15    16    1
    26    13    14    1
@<TRIPOS>MOLECULE
Molport-052-055-979 MCULE-7130697295 PubChem-110089784
 24 26 0 0 0
SMALL
GASTEIGER

@<TRIPOS>ATOM
      1 C          13.4452   42.0388    6.7194 C.ar    1  UNL1        0.1368
      2 C          14.5795   40.8361    8.4185 C.ar    1  UNL1        0.1411
      3 C          15.6317   42.7177    7.4486 C.ar    1  UNL1        0.0635
      4 C          14.5293   42.9175    6.6206 C.ar    1  UNL1        0.0492
      5 C          16.7983   43.6342    7.3669 C.3     1  UNL1        0.0522
      6 N          13.4970   41.0190    7.6168 N.ar    1  UNL1       -0.2158
      7 N          15.6393   41.6853    8.3303 N.ar    1  UNL1       -0.2349
      8 C          14.5922   39.7024    9.3898 C.3     1  UNL1        0.0744
      9 C          13.6359   39.9775   10.5491 C.3     1  UNL1        0.0104
     10 C          13.7314   38.8645   11.5872 C.3     1  UNL1        0.0176
     11 C          15.1870   38.6862   12.0128 C.3     1  UNL1        0.0686
     12 C          16.0059   39.4656    9.9235 C.3     1  UNL1        0.0761
     13 N          16.0082   38.3381   10.8542 N.3     1  UNL1       -0.2971
     14 H          15.6222   37.5131   10.3951 H       1  UNL1        0.1233
     15 N          12.2760   42.1813    5.9001 N.pl3   1  UNL1       -0.2679
     16 H          12.2413   42.9800    5.3255 H       1  UNL1        0.1565
     17 C           8.1889   40.4695    7.9215 C.3     1  UNL1        0.0522
     18 C           9.1655   40.4601    6.8015 C.ar    1  UNL1        0.0634
     19 C           8.9739   39.6057    5.7174 C.ar    1  UNL1        0.0296
     20 C           9.9118   39.6263    4.6871 C.ar    1  UNL1        0.0634
     21 C          11.1521   41.2941    5.8219 C.ar    1  UNL1        0.2211
     22 C           9.7459   38.7314    3.5124 C.3     1  UNL1        0.0522
     23 N          10.9780   40.4647    4.7564 N.ar    1  UNL1       -0.2179
     24 N          10.2449   41.2845    6.8345 N.ar    1  UNL1       -0.2179
@<TRIPOS>BOND
     1    17    18    1
     2    18    24   ar
     3    19    20   ar
     4    21    23   ar
     5    21    15    1
     6     2     6   ar
     7     3     7   ar
     8     4     1   ar
     9     5     3    1
    10     8     2    1
    11     8     9    1
    12     9    10    1
    13    10    11    1
    14    11    13    1
    15    12    13    1
    16    12     8    1
    17    22    20    1
    18    15     1    1
    19    18    19   ar
    20    20    23   ar
    21    21    24   ar
    22     1     6   ar
    23     2     7   ar
    24     3     4   ar
    25    15    16    1
    26    13    14    1
@<TRIPOS>MOLECULE
Molport-052-055-979 MCULE-7130697295 PubChem-110089784
 24 26 0 0 0
SMALL
GASTEIGER

@<TRIPOS>ATOM
      1 C          10.9254   41.2844    5.5504 C.ar    1  UNL1        0.1368
      2 C           8.5871   41.0761    5.8807 C.ar    1  UNL1        0.1411
      3 C           9.6574   39.6488    4.3298 C.ar    1  UNL1        0.0635
      4 C          10.8825   40.2502    4.6093 C.ar    1  UNL1        0.0492
      5 C           9.5799   38.5478    3.3350 C.3     1  UNL1        0.0522
      6 N           9.7757   41.6721    6.1635 N.ar    1  UNL1       -0.2158
      7 N           8.5346   40.0690    4.9668 N.ar    1  UNL1       -0.2349
      8 C           7.3499   41.5346    6.5790 C.3     1  UNL1        0.0744
      9 C           7.7000   42.4794    7.7275 C.3     1  UNL1        0.0104
     10 C           6.4412   42.8610    8.4991 C.3     1  UNL1        0.0176
     11 C           5.7077   41.5958    8.9383 C.3     1  UNL1        0.0686
     12 C           6.5556   40.3397    7.1090 C.3     1  UNL1        0.0761
     13 N           5.3354   40.8015    7.7685 N.3     1  UNL1       -0.2971
     14 H           4.7920   41.3747    7.1231 H       1  UNL1        0.1233
     15 N          12.1498   41.9510    5.8898 N.pl3   1  UNL1       -0.2679
     16 H          12.3744   42.7476    5.3568 H       1  UNL1        0.1565
     17 C          16.5576   42.5243    7.8807 C.3     1  UNL1        0.0522
     18 C          15.2252   41.8665    7.8862 C.ar    1  UNL1        0.0634
     19 C          14.9148   40.9297    8.8702 C.ar    1  UNL1        0.0296
     20 C          13.6551   40.3350    8.8413 C.ar    1  UNL1        0.0634
     21 C          13.0840   41.5902    6.9163 C.ar    1  UNL1        0.2211
     22 C          13.2830   39.3308    9.8716 C.3     1  UNL1        0.0522
     23 N          12.7668   40.6732    7.8712 N.ar    1  UNL1       -0.2179
     24 N          14.3095   42.1785    6.9321 N.ar    1  UNL1       -0.2179
@<TRIPOS>BOND
     1    17    18    1
     2    18    24   ar
     3    19    20   ar
     4    21    23   ar
     5    21    15    1
     6     2     6   ar
     7     3     7   ar
     8     4     1   ar
     9     5     3    1
    10     8     2    1
    11     8     9    1
    12     9    10    1
    13    10    11    1
    14    11    13    1
    15    12    13    1
    16    12     8    1
    17    22    20    1
    18    15     1    1
    19    18    19   ar
    20    20    23   ar
    21    21    24   ar
    22     1     6   ar
    23     2     7   ar
    24     3     4   ar
    25    15    16    1
    26    13    14    1
@<TRIPOS>MOLECULE
Molport-052-055-979 MCULE-7130697295 PubChem-110089784
 24 26 0 0 0
SMALL
GASTEIGER

@<TRIPOS>ATOM
      1 C          11.6242   40.6086    7.4404 C.ar    1  UNL1        0.1368
      2 C          11.7444   39.0190    9.1951 C.ar    1  UNL1        0.1411
      3 C          10.0406   38.8062    7.5703 C.ar    1  UNL1        0.0635
      4 C          10.5107   39.9431    6.9166 C.ar    1  UNL1        0.0492
      5 C           8.8599   38.0778    7.0381 C.3     1  UNL1        0.0522
      6 N          12.2141   40.1296    8.5677 N.ar    1  UNL1       -0.2158
      7 N          10.6618   38.3641    8.6936 N.ar    1  UNL1       -0.2349
      8 C          12.4245   38.5289   10.4304 C.3     1  UNL1        0.0744
      9 C          13.6307   39.4055   10.7632 C.3     1  UNL1        0.0104
     10 C          14.3793   38.8386   11.9648 C.3     1  UNL1        0.0176
     11 C          14.7291   37.3751   11.7050 C.3     1  UNL1        0.0686
     12 C          12.8664   37.0743   10.2617 C.3     1  UNL1        0.0761
     13 N          13.5086   36.6001   11.4864 N.3     1  UNL1       -0.2971
     14 H          12.8760   36.7256   12.2767 H       1  UNL1        0.1233
     15 N          12.1648   41.7852    6.8225 N.pl3   1  UNL1       -0.2679
     16 H          11.5588   42.2820    6.2265 H       1  UNL1        0.1565
     17 C          16.5944   41.4118    8.8125 C.3     1  UNL1        0.0522
     18 C          15.6400   42.1423    7.9387 C.ar    1  UNL1        0.0634
     19 C          16.0402   43.3115    7.2945 C.ar    1  UNL1        0.0296
     20 C          15.1164   43.9675    6.4835 C.ar    1  UNL1        0.0634
     21 C          13.4865   42.3209    6.9732 C.ar    1  UNL1        0.2211
     22 C          15.5015   45.2175    5.7782 C.3     1  UNL1        0.0522
     23 N          13.8633   43.4643    6.3376 N.ar    1  UNL1       -0.2179
     24 N          14.3775   41.6703    7.7676 N.ar    1  UNL1       -0.2179
@<TRIPOS>BOND
     1    17    18    1
     2    18    24   ar
     3    19    20   ar
     4    21    23   ar
     5    21    15    1
     6     2     6   ar
     7     3     7   ar
     8     4     1   ar
     9     5     3    1
    10     8     2    1
    11     8     9    1
    12     9    10    1
    13    10    11    1
    14    11    13    1
    15    12    13    1
    16    12     8    1
    17    22    20    1
    18    15     1    1
    19    18    19   ar
    20    20    23   ar
    21    21    24   ar
    22     1     6   ar
    23     2     7   ar
    24     3     4   ar
    25    15    16    1
    26    13    14    1
@<TRIPOS>MOLECULE
Molport-052-055-979 MCULE-7130697295 PubChem-110089784
 24 26 0 0 0
SMALL
GASTEIGER

@<TRIPOS>ATOM
      1 C          10.2627   41.6436    6.6799 C.ar    1  UNL1        0.1368
      2 C           9.0972   41.5227    8.7408 C.ar    1  UNL1        0.1411
      3 C           8.1939   40.4332    6.8473 C.ar    1  UNL1        0.0635
      4 C           9.2691   40.8667    6.0748 C.ar    1  UNL1        0.0492
      5 C           7.1228   39.6066    6.2329 C.3     1  UNL1        0.0522
      6 N          10.1522   41.9526    7.9991 N.ar    1  UNL1       -0.2158
      7 N           8.1252   40.7663    8.1616 N.ar    1  UNL1       -0.2349
      8 C           9.0177   41.8862   10.1865 C.3     1  UNL1        0.0744
      9 C           9.9866   41.0373   11.0079 C.3     1  UNL1        0.0104
     10 C           9.8256   41.3416   12.4935 C.3     1  UNL1        0.0176
     11 C           8.3615   41.1740   12.8937 C.3     1  UNL1        0.0686
     12 C           7.5919   41.7059   10.7102 C.3     1  UNL1        0.0761
     13 N           7.5233   42.0883   12.1195 N.3     1  UNL1       -0.2971
     14 H           7.8617   43.0438   12.2330 H       1  UNL1        0.1233
     15 N          11.3990   42.1260    5.9486 N.pl3   1  UNL1       -0.2679
     16 H          11.2437   42.3558    5.0040 H       1  UNL1        0.1565
     17 C          15.5283   44.7073    5.8618 C.3     1  UNL1        0.0522
     18 C          14.7430   43.5643    6.3957 C.ar    1  UNL1        0.0634
     19 C          15.3090   42.7115    7.3414 C.ar    1  UNL1        0.0296
     20 C          14.5407   41.6512    7.8177 C.ar    1  UNL1        0.0634
     21 C          12.7350   42.3120    6.4356 C.ar    1  UNL1        0.2211
     22 C          15.1055   40.7178    8.8267 C.3     1  UNL1        0.0522
     23 N          13.2749   41.4706    7.3596 N.ar    1  UNL1       -0.2179
     24 N          13.4732   43.3508    5.9620 N.ar    1  UNL1       -0.2179
@<TRIPOS>BOND
     1    17    18    1
     2    18    24   ar
     3    19    20   ar
     4    21    23   ar
     5    21    15    1
     6     2     6   ar
     7     3     7   ar
     8     4     1   ar
     9     5     3    1
    10     8     2    1
    11     8     9    1
    12     9    10    1
    13    10    11    1
    14    11    13    1
    15    12    13    1
    16    12     8    1
    17    22    20    1
    18    15     1    1
    19    18    19   ar
    20    20    23   ar
    21    21    24   ar
    22     1     6   ar
    23     2     7   ar
    24     3     4   ar
    25    15    16    1
    26    13    14    1
@<TRIPOS>MOLECULE
Molport-052-055-979 MCULE-7130697295 PubChem-110089784
 24 26 0 0 0
SMALL
GASTEIGER

@<TRIPOS>ATOM
      1 C           9.4690   41.2211   10.4397 C.ar    1  UNL1        0.1368
      2 C           7.2335   41.6713   11.0878 C.ar    1  UNL1        0.1411
      3 C           8.8550   41.2766   12.7620 C.ar    1  UNL1        0.0635
      4 C           9.8328   41.1017   11.7853 C.ar    1  UNL1        0.0492
      5 C           9.2107   41.1559   14.1996 C.3     1  UNL1        0.0522
      6 N           8.1772   41.5033   10.1239 N.ar    1  UNL1       -0.2158
      7 N           7.5771   41.5574   12.3998 N.ar    1  UNL1       -0.2349
      8 C           5.8270   41.9806   10.6942 C.3     1  UNL1        0.0744
      9 C           4.8564   41.0064   11.3598 C.3     1  UNL1        0.0104
     10 C           3.4343   41.2633   10.8727 C.3     1  UNL1        0.0176
     11 C           3.4022   41.2252    9.3465 C.3     1  UNL1        0.0686
     12 C           5.6670   41.9210    9.1742 C.3     1  UNL1        0.0761
     13 N           4.2920   42.2494    8.8015 N.3     1  UNL1       -0.2971
     14 H           4.0411   43.1611    9.1839 H       1  UNL1        0.1233
     15 N          10.4205   41.0544    9.3788 N.pl3   1  UNL1       -0.2679
     16 H          10.0669   41.1191    8.4623 H       1  UNL1        0.1565
     17 C          14.0554   38.8422   11.7483 C.3     1  UNL1        0.0522
     18 C          13.5960   39.7307   10.6494 C.ar    1  UNL1        0.0634
     19 C          14.5235   40.2929    9.7742 C.ar    1  UNL1        0.0296
     20 C          14.0533   41.1206    8.7567 C.ar    1  UNL1        0.0634
     21 C          11.8273   40.8043    9.5001 C.ar    1  UNL1        0.2211
     22 C          15.0080   41.7407    7.8016 C.3     1  UNL1        0.0522
     23 N          12.7218   41.3606    8.6377 N.ar    1  UNL1       -0.2179
     24 N          12.2719   39.9947   10.4977 N.ar    1  UNL1       -0.2179
@<TRIPOS>BOND
     1    17    18    1
     2    18    24   ar
     3    19    20   ar
     4    21    23   ar
     5    21    15    1
     6     2     6   ar
     7     3     7   ar
     8     4     1   ar
     9     5     3    1
    10     8     2    1
    11     8     9    1
    12     9    10    1
    13    10    11    1
    14    11    13    1
    15    12    13    1
    16    12     8    1
    17    22    20    1
    18    15     1    1
    19    18    19   ar
    20    20    23   ar
    21    21    24   ar
    22     1     6   ar
    23     2     7   ar
    24     3     4   ar
    25    15    16    1
    26    13    14    1
