@<TRIPOS>MOLECULE
MolPort-002-761-906 2730088 CSSS00132538522 MCULE-7263961932 PubChem-17024138 ZINC000002730088 ZINC02730088
 29 32 0 0 0
SMALL
GASTEIGER

@<TRIPOS>ATOM
      1 C          13.0532   40.4396    9.2704 C.ar    1  UNL1        0.1370
      2 C          11.4893   40.9349   11.0070 C.ar    1  UNL1        0.1869
      3 N          13.2330   39.6847   10.3755 N.ar    1  UNL1       -0.1420
      4 N          12.3663   39.9645   11.3463 N.ar    1  UNL1       -0.1256
      5 S          11.7574   41.5018    9.4465 S.2     1  UNL1       -0.0328
      6 N          10.4627   41.4286   11.8708 N.pl3   1  UNL1       -0.2754
      7 H          10.7267   41.7362   12.7680 H       1  UNL1        0.1556
      8 C           9.0782   41.5061   11.5204 C.ar    1  UNL1        0.1549
      9 C           6.9073   41.4735   11.6215 C.ar    1  UNL1        0.0984
     10 C           8.0377   41.3266   12.4125 C.ar    1  UNL1        0.0564
     11 N           8.6216   41.7436   10.2801 N.ar    1  UNL1       -0.1537
     12 N           7.3051   41.7257   10.3612 N.ar    1  UNL1       -0.2437
     13 C           6.4204   41.9056    9.2219 C.3     1  UNL1        0.1539
     14 C           6.8561   41.0367    8.0916 C.ar    1  UNL1        0.0021
     15 C           5.9147   40.5463    7.1793 C.ar    1  UNL1       -0.0023
     16 C           6.3219   39.7048    6.1397 C.ar    1  UNL1       -0.0003
     17 C           7.6687   39.3477    6.0148 C.ar    1  UNL1       -0.0000
     18 C           8.6087   39.8314    6.9301 C.ar    1  UNL1       -0.0003
     19 C           8.2023   40.6730    7.9696 C.ar    1  UNL1       -0.0023
     20 C          13.8652   40.2853    8.0320 C.3     1  UNL1        0.1810
     21 C          13.3053   42.6255    6.1273 C.3     1  UNL1        0.0518
     22 C          14.4946   42.4854    7.0156 C.ar    1  UNL1        0.0578
     23 C          15.5286   43.3982    7.1069 C.ar    1  UNL1        0.0364
     24 C          16.3578   42.8122    8.0558 C.ar    1  UNL1        0.1456
     25 N          15.8630   41.6312    8.4817 N.ar    1  UNL1       -0.1680
     26 N          14.7209   41.4480    7.8454 N.ar    1  UNL1       -0.2483
     27 C          17.6737   43.3627    8.4862 C.3     1  UNL1        0.3598
     28 F          18.2133   44.1534    7.4857 F       1  UNL1       -0.1915
     29 F          17.5161   44.1149    9.6380 F       1  UNL1       -0.1915
@<TRIPOS>BOND
     1    21    22    1
     2    23    24   ar
     3    20    26    1
     4    20     1    1
     5     1     5   ar
     6     2     6    1
     7     2     5   ar
     8    13    12    1
     9    13    14    1
    10    15    16   ar
    11    17    18   ar
    12    19    14   ar
    13    10     8   ar
    14    27    24    1
    15    27    28    1
    16    27    29    1
    17    26    25   ar
    18    26    22   ar
    19     3     4   ar
    20     6     8    1
    21    12    11   ar
    22    12     9   ar
    23    22    23   ar
    24    24    25   ar
    25     1     3   ar
    26     2     4   ar
    27     8    11   ar
    28    14    15   ar
    29    16    17   ar
    30    18    19   ar
    31     9    10   ar
    32     6     7    1
@<TRIPOS>MOLECULE
MolPort-002-761-906 2730088 CSSS00132538522 MCULE-7263961932 PubChem-17024138 ZINC000002730088 ZINC02730088
 29 32 0 0 0
SMALL
GASTEIGER

@<TRIPOS>ATOM
      1 C           8.5969   41.6944   10.7841 C.ar    1  UNL1        0.1370
      2 C          10.8063   40.8865   11.1991 C.ar    1  UNL1        0.1869
      3 N           8.8957   41.6226   12.0989 N.ar    1  UNL1       -0.1420
      4 N          10.1243   41.1663   12.3316 N.ar    1  UNL1       -0.1256
      5 S           9.8912   41.2028    9.8241 S.2     1  UNL1       -0.0328
      6 N          12.1410   40.3750   11.1702 N.pl3   1  UNL1       -0.2754
      7 H          12.4764   39.9223   11.9775 H       1  UNL1        0.1556
      8 C          13.0222   40.4761   10.0481 C.ar    1  UNL1        0.1549
      9 C          14.6765   40.1611    8.6740 C.ar    1  UNL1        0.0984
     10 C          14.1466   39.6925    9.8675 C.ar    1  UNL1        0.0564
     11 N          12.8748   41.3562    9.0446 N.ar    1  UNL1       -0.1537
     12 N          13.8823   41.1474    8.2190 N.ar    1  UNL1       -0.2437
     13 C          14.1149   41.9227    7.0116 C.3     1  UNL1        0.1539
     14 C          15.3725   42.7123    7.1432 C.ar    1  UNL1        0.0021
     15 C          15.5875   43.8314    6.3305 C.ar    1  UNL1       -0.0023
     16 C          16.7822   44.5503    6.4332 C.ar    1  UNL1       -0.0003
     17 C          17.7654   44.1477    7.3433 C.ar    1  UNL1       -0.0000
     18 C          17.5544   43.0255    8.1504 C.ar    1  UNL1       -0.0003
     19 C          16.3600   42.3064    8.0484 C.ar    1  UNL1       -0.0023
     20 C           7.3024   42.2161   10.2655 C.3     1  UNL1        0.1810
     21 C           5.8517   43.9067    8.1547 C.3     1  UNL1        0.0518
     22 C           6.5148   42.5922    7.9187 C.ar    1  UNL1        0.0578
     23 C           6.5687   41.9379    6.7023 C.ar    1  UNL1        0.0364
     24 C           7.2855   40.7893    7.0156 C.ar    1  UNL1        0.1456
     25 N           7.6158   40.7551    8.3234 N.ar    1  UNL1       -0.1680
     26 N           7.1471   41.8658    8.8612 N.ar    1  UNL1       -0.2483
     27 C           7.5767   39.6852    6.0583 C.3     1  UNL1        0.3598
     28 F           8.6954   39.9894    5.3012 F       1  UNL1       -0.1915
     29 F           7.7915   38.5054    6.7506 F       1  UNL1       -0.1915
@<TRIPOS>BOND
     1    21    22    1
     2    23    24   ar
     3    20    26    1
     4    20     1    1
     5     1     5   ar
     6     2     6    1
     7     2     5   ar
     8    13    12    1
     9    13    14    1
    10    15    16   ar
    11    17    18   ar
    12    19    14   ar
    13    10     8   ar
    14    27    24    1
    15    27    28    1
    16    27    29    1
    17    26    25   ar
    18    26    22   ar
    19     3     4   ar
    20     6     8    1
    21    12    11   ar
    22    12     9   ar
    23    22    23   ar
    24    24    25   ar
    25     1     3   ar
    26     2     4   ar
    27     8    11   ar
    28    14    15   ar
    29    16    17   ar
    30    18    19   ar
    31     9    10   ar
    32     6     7    1
@<TRIPOS>MOLECULE
MolPort-002-761-906 2730088 CSSS00132538522 MCULE-7263961932 PubChem-17024138 ZINC000002730088 ZINC02730088
 29 32 0 0 0
SMALL
GASTEIGER

@<TRIPOS>ATOM
      1 C           7.7001   41.3656   11.6750 C.ar    1  UNL1        0.1370
      2 C          10.0679   41.1726   11.4251 C.ar    1  UNL1        0.1869
      3 N           8.3619   41.4141   12.8509 N.ar    1  UNL1       -0.1420
      4 N           9.6809   41.3000   12.7135 N.ar    1  UNL1       -0.1256
      5 S           8.7561   41.1981   10.3730 S.2     1  UNL1       -0.0328
      6 N          11.4264   41.0247   11.0046 N.pl3   1  UNL1       -0.2754
      7 H          12.1259   41.0473   11.6970 H       1  UNL1        0.1556
      8 C          11.8382   40.8461    9.6466 C.ar    1  UNL1        0.1549
      9 C          12.5606   39.9634    7.7965 C.ar    1  UNL1        0.0984
     10 C          12.2501   39.6408    9.1097 C.ar    1  UNL1        0.0564
     11 N          11.8925   41.8302    8.7346 N.ar    1  UNL1       -0.1537
     12 N          12.3268   41.2765    7.6188 N.ar    1  UNL1       -0.2437
     13 C          12.5633   42.0121    6.3876 C.3     1  UNL1        0.1539
     14 C          13.8270   42.7959    6.4927 C.ar    1  UNL1        0.0021
     15 C          13.9792   43.9836    5.7680 C.ar    1  UNL1       -0.0023
     16 C          15.1780   44.6991    5.8430 C.ar    1  UNL1       -0.0003
     17 C          16.2276   44.2250    6.6373 C.ar    1  UNL1       -0.0000
     18 C          16.0789   43.0348    7.3560 C.ar    1  UNL1       -0.0003
     19 C          14.8805   42.3191    7.2815 C.ar    1  UNL1       -0.0023
     20 C           6.2234   41.5170   11.5592 C.3     1  UNL1        0.1810
     21 C           3.3837   41.9746   10.4893 C.3     1  UNL1        0.0518
     22 C           4.6476   42.4213    9.8363 C.ar    1  UNL1        0.0578
     23 C           4.7221   43.1101    8.6402 C.ar    1  UNL1        0.0364
     24 C           6.0919   43.2851    8.4843 C.ar    1  UNL1        0.1456
     25 N           6.7798   42.7256    9.5014 N.ar    1  UNL1       -0.1680
     26 N           5.8857   42.2095   10.3242 N.ar    1  UNL1       -0.2483
     27 C           6.7349   43.9248    7.3022 C.3     1  UNL1        0.3598
     28 F           7.8018   43.1588    6.8635 F       1  UNL1       -0.1915
     29 F           5.8111   44.0625    6.2799 F       1  UNL1       -0.1915
@<TRIPOS>BOND
     1    21    22    1
     2    23    24   ar
     3    20    26    1
     4    20     1    1
     5     1     5   ar
     6     2     6    1
     7     2     5   ar
     8    13    12    1
     9    13    14    1
    10    15    16   ar
    11    17    18   ar
    12    19    14   ar
    13    10     8   ar
    14    27    24    1
    15    27    28    1
    16    27    29    1
    17    26    25   ar
    18    26    22   ar
    19     3     4   ar
    20     6     8    1
    21    12    11   ar
    22    12     9   ar
    23    22    23   ar
    24    24    25   ar
    25     1     3   ar
    26     2     4   ar
    27     8    11   ar
    28    14    15   ar
    29    16    17   ar
    30    18    19   ar
    31     9    10   ar
    32     6     7    1
@<TRIPOS>MOLECULE
MolPort-002-761-906 2730088 CSSS00132538522 MCULE-7263961932 PubChem-17024138 ZINC000002730088 ZINC02730088
 29 32 0 0 0
SMALL
GASTEIGER

@<TRIPOS>ATOM
      1 C           6.9553   40.4780    7.0541 C.ar    1  UNL1        0.1370
      2 C           9.1018   39.6955    6.3563 C.ar    1  UNL1        0.1869
      3 N           6.8917   39.6054    6.0256 N.ar    1  UNL1       -0.1420
      4 N           8.0876   39.1737    5.6316 N.ar    1  UNL1       -0.1256
      5 S           8.5439   40.7412    7.5494 S.2     1  UNL1       -0.0328
      6 N          10.4832   39.4030    6.1325 N.pl3   1  UNL1       -0.2754
      7 H          10.7038   38.5799    5.6395 H       1  UNL1        0.1556
      8 C          11.5665   40.2249    6.5761 C.ar    1  UNL1        0.1549
      9 C          13.1914   41.0576    7.7551 C.ar    1  UNL1        0.0984
     10 C          12.2734   40.0174    7.7457 C.ar    1  UNL1        0.0564
     11 N          12.0154   41.3073    5.9204 N.ar    1  UNL1       -0.1537
     12 N          13.0030   41.7957    6.6460 N.ar    1  UNL1       -0.2437
     13 C          13.7424   42.9994    6.3031 C.3     1  UNL1        0.1539
     14 C          15.1057   42.9528    6.9043 C.ar    1  UNL1        0.0021
     15 C          15.4123   41.9937    7.8764 C.ar    1  UNL1       -0.0023
     16 C          16.6816   41.9737    8.4623 C.ar    1  UNL1       -0.0003
     17 C          17.6431   42.9159    8.0817 C.ar    1  UNL1       -0.0000
     18 C          17.3352   43.8790    7.1158 C.ar    1  UNL1       -0.0003
     19 C          16.0664   43.8994    6.5296 C.ar    1  UNL1       -0.0023
     20 C           5.7523   41.0675    7.7038 C.3     1  UNL1        0.1810
     21 C           3.6011   40.8506    9.8818 C.3     1  UNL1        0.0518
     22 C           5.0491   41.1266   10.1062 C.ar    1  UNL1        0.0578
     23 C           5.6359   41.3300   11.3411 C.ar    1  UNL1        0.0364
     24 C           6.9688   41.5346   11.0054 C.ar    1  UNL1        0.1456
     25 N           7.1560   41.4762    9.6704 N.ar    1  UNL1       -0.1680
     26 N           5.9778   41.2176    9.1341 N.ar    1  UNL1       -0.2483
     27 C           8.0456   41.8698   11.9791 C.3     1  UNL1        0.3598
     28 F           8.1971   40.8453   12.8982 F       1  UNL1       -0.1915
     29 F           9.2404   42.0729   11.3094 F       1  UNL1       -0.1915
@<TRIPOS>BOND
     1    21    22    1
     2    23    24   ar
     3    20    26    1
     4    20     1    1
     5     1     5   ar
     6     2     6    1
     7     2     5   ar
     8    13    12    1
     9    13    14    1
    10    15    16   ar
    11    17    18   ar
    12    19    14   ar
    13    10     8   ar
    14    27    24    1
    15    27    28    1
    16    27    29    1
    17    26    25   ar
    18    26    22   ar
    19     3     4   ar
    20     6     8    1
    21    12    11   ar
    22    12     9   ar
    23    22    23   ar
    24    24    25   ar
    25     1     3   ar
    26     2     4   ar
    27     8    11   ar
    28    14    15   ar
    29    16    17   ar
    30    18    19   ar
    31     9    10   ar
    32     6     7    1
@<TRIPOS>MOLECULE
MolPort-002-761-906 2730088 CSSS00132538522 MCULE-7263961932 PubChem-17024138 ZINC000002730088 ZINC02730088
 29 32 0 0 0
SMALL
GASTEIGER

@<TRIPOS>ATOM
      1 C          10.8469   41.0822    8.6088 C.ar    1  UNL1        0.1370
      2 C          12.6595   40.0322    9.7569 C.ar    1  UNL1        0.1869
      3 N          10.6728   41.0415    9.9471 N.ar    1  UNL1       -0.1420
      4 N          11.6791   40.4506   10.5874 N.ar    1  UNL1       -0.1256
      5 S          12.3118   40.3876    8.1504 S.2     1  UNL1       -0.0328
      6 N          13.8457   39.3602   10.1877 N.pl3   1  UNL1       -0.2754
      7 H          13.7406   38.5124   10.6770 H       1  UNL1        0.1556
      8 C          15.1745   39.8359    9.9562 C.ar    1  UNL1        0.1549
      9 C          17.3363   40.0566    9.9997 C.ar    1  UNL1        0.0984
     10 C          16.3137   39.2462   10.4714 C.ar    1  UNL1        0.0564
     11 N          15.4751   40.9225    9.2268 N.ar    1  UNL1       -0.1537
     12 N          16.7888   41.0378    9.2595 N.ar    1  UNL1       -0.2437
     13 C          17.5241   42.1156    8.6185 C.3     1  UNL1        0.1539
     14 C          16.6291   42.8685    7.6942 C.ar    1  UNL1        0.0021
     15 C          15.3653   42.3608    7.3714 C.ar    1  UNL1       -0.0023
     16 C          14.5416   43.0528    6.4785 C.ar    1  UNL1       -0.0003
     17 C          14.9827   44.2490    5.9026 C.ar    1  UNL1       -0.0000
     18 C          16.2480   44.7532    6.2190 C.ar    1  UNL1       -0.0003
     19 C          17.0719   44.0619    7.1119 C.ar    1  UNL1       -0.0023
     20 C           9.8841   41.7314    7.6768 C.3     1  UNL1        0.1810
     21 C           7.0005   40.6885    7.5532 C.3     1  UNL1        0.0518
     22 C           8.1162   40.2861    6.6496 C.ar    1  UNL1        0.0578
     23 C           8.0111   39.3728    5.6173 C.ar    1  UNL1        0.0364
     24 C           9.3002   39.3630    5.0984 C.ar    1  UNL1        0.1456
     25 N          10.1142   40.1934    5.7831 N.ar    1  UNL1       -0.1680
     26 N           9.3766   40.7573    6.7216 N.ar    1  UNL1       -0.2483
     27 C           9.7596   38.4819    3.9881 C.3     1  UNL1        0.3598
     28 F           9.0150   38.7223    2.8457 F       1  UNL1       -0.1915
     29 F          11.0994   38.7133    3.7261 F       1  UNL1       -0.1915
@<TRIPOS>BOND
     1    21    22    1
     2    23    24   ar
     3    20    26    1
     4    20     1    1
     5     1     5   ar
     6     2     6    1
     7     2     5   ar
     8    13    12    1
     9    13    14    1
    10    15    16   ar
    11    17    18   ar
    12    19    14   ar
    13    10     8   ar
    14    27    24    1
    15    27    28    1
    16    27    29    1
    17    26    25   ar
    18    26    22   ar
    19     3     4   ar
    20     6     8    1
    21    12    11   ar
    22    12     9   ar
    23    22    23   ar
    24    24    25   ar
    25     1     3   ar
    26     2     4   ar
    27     8    11   ar
    28    14    15   ar
    29    16    17   ar
    30    18    19   ar
    31     9    10   ar
    32     6     7    1
@<TRIPOS>MOLECULE
MolPort-002-761-906 2730088 CSSS00132538522 MCULE-7263961932 PubChem-17024138 ZINC000002730088 ZINC02730088
 29 32 0 0 0
SMALL
GASTEIGER

@<TRIPOS>ATOM
      1 C          13.6561   39.9145    9.3568 C.ar    1  UNL1        0.1370
      2 C          11.4005   39.1912    9.0475 C.ar    1  UNL1        0.1869
      3 N          12.7830   40.5402   10.1750 N.ar    1  UNL1       -0.1420
      4 N          11.5249   40.1428    9.9989 N.ar    1  UNL1       -0.1256
      5 S          12.8852   38.7903    8.3668 S.2     1  UNL1       -0.0328
      6 N          10.1578   38.6013    8.6582 N.pl3   1  UNL1       -0.2754
      7 H           9.9202   37.7306    9.0513 H       1  UNL1        0.1556
      8 C           9.2363   39.1901    7.7363 C.ar    1  UNL1        0.1549
      9 C           7.6201   39.4673    6.3097 C.ar    1  UNL1        0.0984
     10 C           8.2196   38.4999    7.1032 C.ar    1  UNL1        0.0564
     11 N           9.2585   40.4790    7.3601 N.ar    1  UNL1       -0.1537
     12 N           8.2696   40.6302    6.5003 N.ar    1  UNL1       -0.2437
     13 C           7.9694   41.8802    5.8218 C.3     1  UNL1        0.1539
     14 C           7.3383   42.8407    6.7713 C.ar    1  UNL1        0.0021
     15 C           7.9494   43.1182    7.9995 C.ar    1  UNL1       -0.0023
     16 C           7.3384   43.9942    8.9018 C.ar    1  UNL1       -0.0003
     17 C           6.1135   44.5883    8.5801 C.ar    1  UNL1       -0.0000
     18 C           5.4987   44.3060    7.3563 C.ar    1  UNL1       -0.0003
     19 C           6.1093   43.4305    6.4537 C.ar    1  UNL1       -0.0023
     20 C          15.1257   40.1510    9.3924 C.3     1  UNL1        0.1810
     21 C          13.2528   41.4903    7.3635 C.3     1  UNL1        0.0518
     22 C          14.6691   41.8717    7.6317 C.ar    1  UNL1        0.0578
     23 C          15.3500   42.8925    6.9952 C.ar    1  UNL1        0.0364
     24 C          16.6002   42.8361    7.5995 C.ar    1  UNL1        0.1456
     25 N          16.6629   41.8444    8.5123 N.ar    1  UNL1       -0.1680
     26 N          15.4746   41.2693    8.5284 N.ar    1  UNL1       -0.2483
     27 C          17.7598   43.6949    7.2282 C.3     1  UNL1        0.3598
     28 F          17.3396   44.7548    6.4425 F       1  UNL1       -0.1915
     29 F          18.3730   44.1792    8.3714 F       1  UNL1       -0.1915
@<TRIPOS>BOND
     1    21    22    1
     2    23    24   ar
     3    20    26    1
     4    20     1    1
     5     1     5   ar
     6     2     6    1
     7     2     5   ar
     8    13    12    1
     9    13    14    1
    10    15    16   ar
    11    17    18   ar
    12    19    14   ar
    13    10     8   ar
    14    27    24    1
    15    27    28    1
    16    27    29    1
    17    26    25   ar
    18    26    22   ar
    19     3     4   ar
    20     6     8    1
    21    12    11   ar
    22    12     9   ar
    23    22    23   ar
    24    24    25   ar
    25     1     3   ar
    26     2     4   ar
    27     8    11   ar
    28    14    15   ar
    29    16    17   ar
    30    18    19   ar
    31     9    10   ar
    32     6     7    1
@<TRIPOS>MOLECULE
MolPort-002-761-906 2730088 CSSS00132538522 MCULE-7263961932 PubChem-17024138 ZINC000002730088 ZINC02730088
 29 32 0 0 0
SMALL
GASTEIGER

@<TRIPOS>ATOM
      1 C          10.6253   41.6445    9.8522 C.ar    1  UNL1        0.1370
      2 C          12.5244   40.2246   10.1412 C.ar    1  UNL1        0.1869
      3 N          10.6599   41.0471   11.0626 N.ar    1  UNL1       -0.1420
      4 N          11.7142   40.2505   11.2224 N.ar    1  UNL1       -0.1256
      5 S          11.9535   41.2160    8.9086 S.2     1  UNL1       -0.0328
      6 N          13.7181   39.4432   10.0497 N.pl3   1  UNL1       -0.2754
      7 H          13.6407   38.4704   10.1798 H       1  UNL1        0.1556
      8 C          15.0172   39.9784    9.7820 C.ar    1  UNL1        0.1549
      9 C          17.1674   40.2948    9.7631 C.ar    1  UNL1        0.0984
     10 C          16.1962   39.4376   10.2598 C.ar    1  UNL1        0.0564
     11 N          15.2476   41.0807    9.0505 N.ar    1  UNL1       -0.1537
     12 N          16.5553   41.2541    9.0452 N.ar    1  UNL1       -0.2437
     13 C          17.2228   42.3664    8.3892 C.3     1  UNL1        0.1539
     14 C          16.2768   43.0638    7.4721 C.ar    1  UNL1        0.0021
     15 C          15.0738   42.4502    7.1046 C.ar    1  UNL1       -0.0023
     16 C          14.2040   43.0925    6.2183 C.ar    1  UNL1       -0.0003
     17 C          14.5388   44.3455    5.6937 C.ar    1  UNL1       -0.0000
     18 C          15.7438   44.9560    6.0547 C.ar    1  UNL1       -0.0003
     19 C          16.6137   44.3143    6.9410 C.ar    1  UNL1       -0.0023
     20 C           9.5720   42.6163    9.4482 C.3     1  UNL1        0.1810
     21 C           6.7547   43.6422    8.7939 C.3     1  UNL1        0.0518
     22 C           7.3936   42.4189    8.2295 C.ar    1  UNL1        0.0578
     23 C           6.8005   41.5602    7.3232 C.ar    1  UNL1        0.0364
     24 C           7.7946   40.6104    7.1211 C.ar    1  UNL1        0.1456
     25 N           8.8884   40.8746    7.8659 N.ar    1  UNL1       -0.1680
     26 N           8.6337   41.9862    8.5309 N.ar    1  UNL1       -0.2483
     27 C           7.6476   39.3993    6.2656 C.3     1  UNL1        0.3598
     28 F           8.2051   38.2982    6.8933 F       1  UNL1       -0.1915
     29 F           6.3072   39.1603    6.0131 F       1  UNL1       -0.1915
@<TRIPOS>BOND
     1    21    22    1
     2    23    24   ar
     3    20    26    1
     4    20     1    1
     5     1     5   ar
     6     2     6    1
     7     2     5   ar
     8    13    12    1
     9    13    14    1
    10    15    16   ar
    11    17    18   ar
    12    19    14   ar
    13    10     8   ar
    14    27    24    1
    15    27    28    1
    16    27    29    1
    17    26    25   ar
    18    26    22   ar
    19     3     4   ar
    20     6     8    1
    21    12    11   ar
    22    12     9   ar
    23    22    23   ar
    24    24    25   ar
    25     1     3   ar
    26     2     4   ar
    27     8    11   ar
    28    14    15   ar
    29    16    17   ar
    30    18    19   ar
    31     9    10   ar
    32     6     7    1
@<TRIPOS>MOLECULE
MolPort-002-761-906 2730088 CSSS00132538522 MCULE-7263961932 PubChem-17024138 ZINC000002730088 ZINC02730088
 29 32 0 0 0
SMALL
GASTEIGER

@<TRIPOS>ATOM
      1 C          12.7522   37.0359    9.7687 C.ar    1  UNL1        0.1370
      2 C          11.5547   38.6143    8.4342 C.ar    1  UNL1        0.1869
      3 N          11.4156   36.8468    9.7975 N.ar    1  UNL1       -0.1420
      4 N          10.7467   37.7299    9.0595 N.ar    1  UNL1       -0.1256
      5 S          13.1763   38.3307    8.7778 S.2     1  UNL1       -0.0328
      6 N          11.0898   39.6700    7.5896 N.pl3   1  UNL1       -0.2754
      7 H          10.2973   39.4961    7.0320 H       1  UNL1        0.1556
      8 C          11.6977   40.9615    7.4997 C.ar    1  UNL1        0.1549
      9 C          12.2069   43.0444    7.8552 C.ar    1  UNL1        0.0984
     10 C          11.3960   42.0241    8.3308 C.ar    1  UNL1        0.0564
     11 N          12.6205   41.3038    6.5861 N.ar    1  UNL1       -0.1537
     12 N          12.9213   42.5667    6.8199 N.ar    1  UNL1       -0.2437
     13 C          13.8625   43.3365    6.0233 C.3     1  UNL1        0.1539
     14 C          15.2203   43.2796    6.6362 C.ar    1  UNL1        0.0021
     15 C          16.2410   44.1108    6.1607 C.ar    1  UNL1       -0.0023
     16 C          17.5219   44.0316    6.7154 C.ar    1  UNL1       -0.0003
     17 C          17.7853   43.1174    7.7410 C.ar    1  UNL1       -0.0000
     18 C          16.7679   42.2816    8.2117 C.ar    1  UNL1       -0.0003
     19 C          15.4869   42.3605    7.6577 C.ar    1  UNL1       -0.0023
     20 C          13.7200   36.1519   10.4750 C.3     1  UNL1        0.1810
     21 C          14.4305   38.6316   12.1376 C.3     1  UNL1        0.0518
     22 C          15.3624   37.8738   11.2541 C.ar    1  UNL1        0.0578
     23 C          16.6939   38.1852   11.0525 C.ar    1  UNL1        0.0364
     24 C          17.1001   37.1913   10.1703 C.ar    1  UNL1        0.1456
     25 N          16.0817   36.3635    9.8567 N.ar    1  UNL1       -0.1680
     26 N          15.0290   36.7860   10.5321 N.ar    1  UNL1       -0.2483
     27 C          18.4596   37.0975    9.5677 C.3     1  UNL1        0.3598
     28 F          19.4138   36.9419   10.5590 F       1  UNL1       -0.1915
     29 F          18.5160   36.0227    8.6964 F       1  UNL1       -0.1915
@<TRIPOS>BOND
     1    21    22    1
     2    23    24   ar
     3    20    26    1
     4    20     1    1
     5     1     5   ar
     6     2     6    1
     7     2     5   ar
     8    13    12    1
     9    13    14    1
    10    15    16   ar
    11    17    18   ar
    12    19    14   ar
    13    10     8   ar
    14    27    24    1
    15    27    28    1
    16    27    29    1
    17    26    25   ar
    18    26    22   ar
    19     3     4   ar
    20     6     8    1
    21    12    11   ar
    22    12     9   ar
    23    22    23   ar
    24    24    25   ar
    25     1     3   ar
    26     2     4   ar
    27     8    11   ar
    28    14    15   ar
    29    16    17   ar
    30    18    19   ar
    31     9    10   ar
    32     6     7    1
@<TRIPOS>MOLECULE
MolPort-002-761-906 2730088 CSSS00132538522 MCULE-7263961932 PubChem-17024138 ZINC000002730088 ZINC02730088
 29 32 0 0 0
SMALL
GASTEIGER

@<TRIPOS>ATOM
      1 C          10.3867   42.1154   10.1001 C.ar    1  UNL1        0.1370
      2 C          11.8527   40.3357    9.4756 C.ar    1  UNL1        0.1869
      3 N          10.8789   42.2494    8.8499 N.ar    1  UNL1       -0.1420
      4 N          11.7012   41.2617    8.5032 N.ar    1  UNL1       -0.1256
      5 S          10.9484   40.7114   10.8428 S.2     1  UNL1       -0.0328
      6 N          12.6871   39.1803    9.3624 N.pl3   1  UNL1       -0.2754
      7 H          12.2515   38.3154    9.1854 H       1  UNL1        0.1556
      8 C          14.1117   39.1955    9.4888 C.ar    1  UNL1        0.1549
      9 C          16.1691   38.5957    9.8516 C.ar    1  UNL1        0.0984
     10 C          14.8743   38.0975    9.8407 C.ar    1  UNL1        0.0564
     11 N          14.8787   40.2814    9.2994 N.ar    1  UNL1       -0.1537
     12 N          16.1220   39.8983    9.5180 N.ar    1  UNL1       -0.2437
     13 C          17.2682   40.7900    9.4524 C.3     1  UNL1        0.1539
     14 C          16.9597   41.9589    8.5802 C.ar    1  UNL1        0.0021
     15 C          17.8713   43.0157    8.4736 C.ar    1  UNL1       -0.0023
     16 C          17.5645   44.1257    7.6808 C.ar    1  UNL1       -0.0003
     17 C          16.3442   44.1833    6.9993 C.ar    1  UNL1       -0.0000
     18 C          15.4299   43.1313    7.1110 C.ar    1  UNL1       -0.0003
     19 C          15.7361   42.0211    7.9033 C.ar    1  UNL1       -0.0023
     20 C           9.4111   43.0652   10.7025 C.3     1  UNL1        0.1810
     21 C           8.1912   41.2405   12.8473 C.3     1  UNL1        0.0518
     22 C           7.5165   41.6945   11.5975 C.ar    1  UNL1        0.0578
     23 C           6.2317   41.3518   11.2202 C.ar    1  UNL1        0.0364
     24 C           6.0888   42.0239   10.0122 C.ar    1  UNL1        0.1456
     25 N           7.2110   42.6993    9.6875 N.ar    1  UNL1       -0.1680
     26 N           8.0714   42.4970   10.6681 N.ar    1  UNL1       -0.2483
     27 C           4.8884   41.9407    9.1335 C.3     1  UNL1        0.3598
     28 F           4.8754   42.9967    8.2379 F       1  UNL1       -0.1915
     29 F           4.8948   40.7430    8.4386 F       1  UNL1       -0.1915
@<TRIPOS>BOND
     1    21    22    1
     2    23    24   ar
     3    20    26    1
     4    20     1    1
     5     1     5   ar
     6     2     6    1
     7     2     5   ar
     8    13    12    1
     9    13    14    1
    10    15    16   ar
    11    17    18   ar
    12    19    14   ar
    13    10     8   ar
    14    27    24    1
    15    27    28    1
    16    27    29    1
    17    26    25   ar
    18    26    22   ar
    19     3     4   ar
    20     6     8    1
    21    12    11   ar
    22    12     9   ar
    23    22    23   ar
    24    24    25   ar
    25     1     3   ar
    26     2     4   ar
    27     8    11   ar
    28    14    15   ar
    29    16    17   ar
    30    18    19   ar
    31     9    10   ar
    32     6     7    1
@<TRIPOS>MOLECULE
MolPort-002-761-906 2730088 CSSS00132538522 MCULE-7263961932 PubChem-17024138 ZINC000002730088 ZINC02730088
 29 32 0 0 0
SMALL
GASTEIGER

@<TRIPOS>ATOM
      1 C          10.7347   40.1607    9.3051 C.ar    1  UNL1        0.1370
      2 C          12.8567   39.0679    9.2086 C.ar    1  UNL1        0.1869
      3 N          10.7328   38.9479    9.8987 N.ar    1  UNL1       -0.1420
      4 N          11.9129   38.3351    9.8397 N.ar    1  UNL1       -0.1256
      5 S          12.2524   40.5469    8.6839 S.2     1  UNL1       -0.0328
      6 N          14.2042   38.6370    9.0022 N.pl3   1  UNL1       -0.2754
      7 H          14.3460   37.7369    8.6295 H       1  UNL1        0.1556
      8 C          15.3603   39.4245    9.3004 C.ar    1  UNL1        0.1549
      9 C          17.2287   40.1232   10.1634 C.ar    1  UNL1        0.0984
     10 C          16.3452   39.0540   10.1968 C.ar    1  UNL1        0.0564
     11 N          15.6194   40.6265    8.7605 N.ar    1  UNL1       -0.1537
     12 N          16.7573   41.0321    9.2904 N.ar    1  UNL1       -0.2437
     13 C          17.3768   42.3139    8.9968 C.3     1  UNL1        0.1539
     14 C          16.7843   42.8988    7.7602 C.ar    1  UNL1        0.0021
     15 C          15.4046   42.8213    7.5377 C.ar    1  UNL1       -0.0023
     16 C          14.8563   43.3415    6.3616 C.ar    1  UNL1       -0.0003
     17 C          15.6868   43.9337    5.4042 C.ar    1  UNL1       -0.0000
     18 C          17.0661   44.0050    5.6224 C.ar    1  UNL1       -0.0003
     19 C          17.6150   43.4853    6.7982 C.ar    1  UNL1       -0.0023
     20 C           9.5495   41.0614    9.2781 C.3     1  UNL1        0.1810
     21 C           6.6991   41.9477    9.9908 C.3     1  UNL1        0.0518
     22 C           7.7889   41.6419   10.9613 C.ar    1  UNL1        0.0578
     23 C           7.6711   41.7179   12.3364 C.ar    1  UNL1        0.0364
     24 C           8.9372   41.3360   12.7635 C.ar    1  UNL1        0.1456
     25 N           9.7511   41.0717   11.7203 N.ar    1  UNL1       -0.1680
     26 N           9.0350   41.2536   10.6262 N.ar    1  UNL1       -0.2483
     27 C           9.3788   41.3091   14.1864 C.3     1  UNL1        0.3598
     28 F           8.7461   40.2816   14.8655 F       1  UNL1       -0.1915
     29 F          10.7506   41.1326   14.2510 F       1  UNL1       -0.1915
@<TRIPOS>BOND
     1    21    22    1
     2    23    24   ar
     3    20    26    1
     4    20     1    1
     5     1     5   ar
     6     2     6    1
     7     2     5   ar
     8    13    12    1
     9    13    14    1
    10    15    16   ar
    11    17    18   ar
    12    19    14   ar
    13    10     8   ar
    14    27    24    1
    15    27    28    1
    16    27    29    1
    17    26    25   ar
    18    26    22   ar
    19     3     4   ar
    20     6     8    1
    21    12    11   ar
    22    12     9   ar
    23    22    23   ar
    24    24    25   ar
    25     1     3   ar
    26     2     4   ar
    27     8    11   ar
    28    14    15   ar
    29    16    17   ar
    30    18    19   ar
    31     9    10   ar
    32     6     7    1
