@<TRIPOS>MOLECULE
MolPort-047-017-569 Molport-047-017-570 257224536 MCULE-3685565728 MCULE-4369250661 PubChem-110111171 ZINC000257224536
 24 26 0 0 0
SMALL
GASTEIGER

@<TRIPOS>ATOM
      1 C          11.7031   40.1807    8.4298 C.ar    1  UNL1        0.0604
      2 C          10.8206   39.2999    7.7967 C.ar    1  UNL1        0.0148
      3 C          10.4847   39.5146    6.4604 C.ar    1  UNL1        0.0041
      4 C          11.0253   40.6031    5.7755 C.ar    1  UNL1        0.0344
      5 C          11.9006   41.4739    6.4388 C.ar    1  UNL1        0.1328
      6 N          12.2105   41.2404    7.7436 N.ar    1  UNL1       -0.2349
      7 N          12.4811   42.6103    5.7829 N.pl3   1  UNL1       -0.2834
      8 H          11.9599   43.0000    5.0442 H       1  UNL1        0.1550
      9 C          13.7330   43.2440    6.0791 C.ar    1  UNL1        0.1332
     10 C          14.6781   42.5519    6.8414 C.ar    1  UNL1        0.0345
     11 C          15.9006   43.1583    7.1360 C.ar    1  UNL1        0.0045
     12 C          16.1684   44.4456    6.6687 C.ar    1  UNL1        0.0208
     13 C          15.2023   45.1084    5.9096 C.ar    1  UNL1        0.1003
     14 N          14.0172   44.5003    5.6335 N.ar    1  UNL1       -0.2290
     15 C          12.0668   39.9929    9.8658 C.3     1  UNL1        0.0458
     16 C          14.4683   37.1741   10.2149 C.3     1  UNL1        0.0540
     17 C          13.7221   37.8397   11.3750 C.3     1  UNL1        0.0157
     18 C          13.9593   39.3521   11.3995 C.3     1  UNL1        0.0018
     19 C          13.5811   40.0046   10.0684 C.3     1  UNL1        0.0060
     20 C          14.3249   39.3337    8.9083 C.3     1  UNL1        0.0018
     21 C          14.0850   37.8223    8.8838 C.3     1  UNL1        0.0157
     22 C          16.1307   37.4786   11.8348 C.3     1  UNL1        0.0858
     23 N          15.9085   37.2423   10.4188 N.3     1  UNL1       -0.2974
     24 H          16.3432   36.3631   10.1388 H       1  UNL1        0.1232
@<TRIPOS>BOND
     1    22    23    1
     2    16    23    1
     3    16    17    1
     4    17    18    1
     5    18    19    1
     6    19    15    1
     7    19    20    1
     8    15     1    1
     9     1     6   ar
    10     2     3   ar
    11     4     5   ar
    12     5     7    1
    13     9    14   ar
    14    10    11   ar
    15    12    13   ar
    16    20    21    1
    17    21    16    1
    18     7     9    1
    19     1     2   ar
    20     3     4   ar
    21     5     6   ar
    22     9    10   ar
    23    11    12   ar
    24    13    14   ar
    25    23    24    1
    26     7     8    1
@<TRIPOS>MOLECULE
MolPort-047-017-569 Molport-047-017-570 257224536 MCULE-3685565728 MCULE-4369250661 PubChem-110111171 ZINC000257224536
 24 26 0 0 0
SMALL
GASTEIGER

@<TRIPOS>ATOM
      1 C          11.0652   40.2113    8.0489 C.ar    1  UNL1        0.0604
      2 C          10.5454   39.2561    7.1697 C.ar    1  UNL1        0.0148
      3 C          10.6350   39.4743    5.7953 C.ar    1  UNL1        0.0041
      4 C          11.2336   40.6392    5.3155 C.ar    1  UNL1        0.0344
      5 C          11.7381   41.5828    6.2208 C.ar    1  UNL1        0.1328
      6 N          11.6366   41.3440    7.5571 N.ar    1  UNL1       -0.2349
      7 N          12.3593   42.7990    5.7809 N.pl3   1  UNL1       -0.2834
      8 H          11.8252   43.3687    5.1814 H       1  UNL1        0.1550
      9 C          13.6684   43.2807    6.1138 C.ar    1  UNL1        0.1332
     10 C          14.5135   42.4708    6.8774 C.ar    1  UNL1        0.0345
     11 C          15.7903   42.9287    7.2075 C.ar    1  UNL1        0.0045
     12 C          16.2112   44.1866    6.7741 C.ar    1  UNL1        0.0208
     13 C          15.3418   44.9698    6.0129 C.ar    1  UNL1        0.1003
     14 N          14.1016   44.5056    5.7018 N.ar    1  UNL1       -0.2290
     15 C          10.9665   40.0199    9.5265 C.3     1  UNL1        0.0458
     16 C           8.3572   42.1801   11.0626 C.3     1  UNL1        0.0540
     17 C           8.8389   42.2826    9.6124 C.3     1  UNL1        0.0157
     18 C          10.3574   42.4639    9.5380 C.3     1  UNL1        0.0018
     19 C          11.0964   41.3453   10.2750 C.3     1  UNL1        0.0060
     20 C          10.6092   41.2410   11.7245 C.3     1  UNL1        0.0018
     21 C           9.0915   41.0576   11.7973 C.3     1  UNL1        0.0157
     22 C           8.7271   44.4697   10.7448 C.3     1  UNL1        0.0858
     23 N           8.5363   43.4467   11.7583 N.3     1  UNL1       -0.2974
     24 H           7.7098   43.6584   12.3173 H       1  UNL1        0.1232
@<TRIPOS>BOND
     1    22    23    1
     2    16    23    1
     3    16    17    1
     4    17    18    1
     5    18    19    1
     6    19    15    1
     7    19    20    1
     8    15     1    1
     9     1     6   ar
    10     2     3   ar
    11     4     5   ar
    12     5     7    1
    13     9    14   ar
    14    10    11   ar
    15    12    13   ar
    16    20    21    1
    17    21    16    1
    18     7     9    1
    19     1     2   ar
    20     3     4   ar
    21     5     6   ar
    22     9    10   ar
    23    11    12   ar
    24    13    14   ar
    25    23    24    1
    26     7     8    1
@<TRIPOS>MOLECULE
MolPort-047-017-569 Molport-047-017-570 257224536 MCULE-3685565728 MCULE-4369250661 PubChem-110111171 ZINC000257224536
 24 26 0 0 0
SMALL
GASTEIGER

@<TRIPOS>ATOM
      1 C          11.9498   40.5115   10.1380 C.ar    1  UNL1        0.0604
      2 C          12.7495   39.7797   11.0215 C.ar    1  UNL1        0.0148
      3 C          14.1151   39.6605   10.7658 C.ar    1  UNL1        0.0041
      4 C          14.6643   40.2642    9.6346 C.ar    1  UNL1        0.0344
      5 C          13.8365   40.9842    8.7623 C.ar    1  UNL1        0.1328
      6 N          12.5069   41.0838    9.0364 N.ar    1  UNL1       -0.2349
      7 N          14.3490   41.6207    7.5830 N.pl3   1  UNL1       -0.2834
      8 H          13.8492   41.4611    6.7499 H       1  UNL1        0.1550
      9 C          15.5052   42.4626    7.4777 C.ar    1  UNL1        0.1332
     10 C          16.6184   42.1862    8.2761 C.ar    1  UNL1        0.0345
     11 C          17.7499   42.9985    8.1822 C.ar    1  UNL1        0.0045
     12 C          17.7606   44.0757    7.2952 C.ar    1  UNL1        0.0208
     13 C          16.6317   44.3233    6.5123 C.ar    1  UNL1        0.1003
     14 N          15.5389   43.5202    6.6185 N.ar    1  UNL1       -0.2290
     15 C          10.4804   40.6408   10.3698 C.3     1  UNL1        0.0458
     16 C           7.0092   41.8761    9.8606 C.3     1  UNL1        0.0540
     17 C           7.8921   41.2654    8.7683 C.3     1  UNL1        0.0157
     18 C           9.2313   41.9989    8.6553 C.3     1  UNL1        0.0018
     19 C           9.9721   42.0315    9.9935 C.3     1  UNL1        0.0060
     20 C           9.0849   42.6381   11.0862 C.3     1  UNL1        0.0018
     21 C           7.7476   41.9026   11.1997 C.3     1  UNL1        0.0157
     22 C           5.1781   43.1303    9.1159 C.3     1  UNL1        0.0858
     23 N           6.5793   43.2169    9.4892 N.3     1  UNL1       -0.2974
     24 H           6.6918   43.8516   10.2798 H       1  UNL1        0.1232
@<TRIPOS>BOND
     1    22    23    1
     2    16    23    1
     3    16    17    1
     4    17    18    1
     5    18    19    1
     6    19    15    1
     7    19    20    1
     8    15     1    1
     9     1     6   ar
    10     2     3   ar
    11     4     5   ar
    12     5     7    1
    13     9    14   ar
    14    10    11   ar
    15    12    13   ar
    16    20    21    1
    17    21    16    1
    18     7     9    1
    19     1     2   ar
    20     3     4   ar
    21     5     6   ar
    22     9    10   ar
    23    11    12   ar
    24    13    14   ar
    25    23    24    1
    26     7     8    1
@<TRIPOS>MOLECULE
MolPort-047-017-569 Molport-047-017-570 257224536 MCULE-3685565728 MCULE-4369250661 PubChem-110111171 ZINC000257224536
 24 26 0 0 0
SMALL
GASTEIGER

@<TRIPOS>ATOM
      1 C          10.0386   40.7468    7.8892 C.ar    1  UNL1        0.0604
      2 C           9.9573   39.5577    7.1579 C.ar    1  UNL1        0.0148
      3 C          10.6286   39.4593    5.9396 C.ar    1  UNL1        0.0041
      4 C          11.3649   40.5443    5.4637 C.ar    1  UNL1        0.0344
      5 C          11.4212   41.7265    6.2146 C.ar    1  UNL1        0.1328
      6 N          10.7557   41.7946    7.4001 N.ar    1  UNL1       -0.2349
      7 N          12.1601   42.8730    5.7694 N.pl3   1  UNL1       -0.2834
      8 H          11.6950   43.4750    5.1446 H       1  UNL1        0.1550
      9 C          13.4979   43.2431    6.1296 C.ar    1  UNL1        0.1332
     10 C          14.2466   42.3778    6.9322 C.ar    1  UNL1        0.0345
     11 C          15.5502   42.7272    7.2891 C.ar    1  UNL1        0.0045
     12 C          16.0936   43.9328    6.8435 C.ar    1  UNL1        0.0208
     13 C          15.3182   44.7736    6.0431 C.ar    1  UNL1        0.1003
     14 N          14.0499   44.4152    5.7063 N.ar    1  UNL1       -0.2290
     15 C           9.3143   40.8939    9.1867 C.3     1  UNL1        0.0458
     16 C           5.7589   41.5393   10.0683 C.3     1  UNL1        0.0540
     17 C           6.2718   41.2359    8.6575 C.3     1  UNL1        0.0157
     18 C           7.3819   42.2060    8.2442 C.3     1  UNL1        0.0018
     19 C           8.5349   42.2063    9.2499 C.3     1  UNL1        0.0060
     20 C           8.0188   42.5050   10.6618 C.3     1  UNL1        0.0018
     21 C           6.9108   41.5331   11.0744 C.3     1  UNL1        0.0157
     22 C           3.7845   42.6252    9.4339 C.3     1  UNL1        0.0858
     23 N           5.0603   42.8165   10.1016 N.3     1  UNL1       -0.2974
     24 H           4.9091   43.1072   11.0675 H       1  UNL1        0.1232
@<TRIPOS>BOND
     1    22    23    1
     2    16    23    1
     3    16    17    1
     4    17    18    1
     5    18    19    1
     6    19    15    1
     7    19    20    1
     8    15     1    1
     9     1     6   ar
    10     2     3   ar
    11     4     5   ar
    12     5     7    1
    13     9    14   ar
    14    10    11   ar
    15    12    13   ar
    16    20    21    1
    17    21    16    1
    18     7     9    1
    19     1     2   ar
    20     3     4   ar
    21     5     6   ar
    22     9    10   ar
    23    11    12   ar
    24    13    14   ar
    25    23    24    1
    26     7     8    1
@<TRIPOS>MOLECULE
MolPort-047-017-569 Molport-047-017-570 257224536 MCULE-3685565728 MCULE-4369250661 PubChem-110111171 ZINC000257224536
 24 26 0 0 0
SMALL
GASTEIGER

@<TRIPOS>ATOM
      1 C          12.8879   40.5896   10.0807 C.ar    1  UNL1        0.0604
      2 C          12.9133   39.5709   11.0385 C.ar    1  UNL1        0.0148
      3 C          14.1195   38.9308   11.3211 C.ar    1  UNL1        0.0041
      4 C          15.2799   39.3077   10.6447 C.ar    1  UNL1        0.0344
      5 C          15.2221   40.3263    9.6837 C.ar    1  UNL1        0.1328
      6 N          14.0309   40.9334    9.4277 N.ar    1  UNL1       -0.2349
      7 N          16.3843   40.7494    8.9565 N.pl3   1  UNL1       -0.2834
      8 H          17.1288   40.1067    8.9132 H       1  UNL1        0.1550
      9 C          16.5866   42.0005    8.2853 C.ar    1  UNL1        0.1332
     10 C          15.6276   42.4393    7.3682 C.ar    1  UNL1        0.0345
     11 C          15.8134   43.6556    6.7089 C.ar    1  UNL1        0.0045
     12 C          16.9507   44.4211    6.9697 C.ar    1  UNL1        0.0208
     13 C          17.8886   43.9533    7.8918 C.ar    1  UNL1        0.1003
     14 N          17.6893   42.7653    8.5238 N.ar    1  UNL1       -0.2290
     15 C          11.6094   41.2807    9.7380 C.3     1  UNL1        0.0458
     16 C           7.9748   42.0018    9.4139 C.3     1  UNL1        0.0540
     17 C           8.8133   42.2662   10.6680 C.3     1  UNL1        0.0157
     18 C           9.5340   40.9995   11.1373 C.3     1  UNL1        0.0018
     19 C          10.3973   40.3968   10.0273 C.3     1  UNL1        0.0060
     20 C           9.5575   40.1379    8.7716 C.3     1  UNL1        0.0018
     21 C           8.8395   41.4054    8.3023 C.3     1  UNL1        0.0157
     22 C           5.9305   41.8730   10.5472 C.3     1  UNL1        0.0858
     23 N           6.8550   41.1214    9.7161 N.3     1  UNL1       -0.2974
     24 H           6.3940   40.8333    8.8530 H       1  UNL1        0.1232
@<TRIPOS>BOND
     1    22    23    1
     2    16    23    1
     3    16    17    1
     4    17    18    1
     5    18    19    1
     6    19    15    1
     7    19    20    1
     8    15     1    1
     9     1     6   ar
    10     2     3   ar
    11     4     5   ar
    12     5     7    1
    13     9    14   ar
    14    10    11   ar
    15    12    13   ar
    16    20    21    1
    17    21    16    1
    18     7     9    1
    19     1     2   ar
    20     3     4   ar
    21     5     6   ar
    22     9    10   ar
    23    11    12   ar
    24    13    14   ar
    25    23    24    1
    26     7     8    1
@<TRIPOS>MOLECULE
MolPort-047-017-569 Molport-047-017-570 257224536 MCULE-3685565728 MCULE-4369250661 PubChem-110111171 ZINC000257224536
 24 26 0 0 0
SMALL
GASTEIGER

@<TRIPOS>ATOM
      1 C          13.4905   39.7551   10.6047 C.ar    1  UNL1        0.0604
      2 C          13.8152   38.8674   11.6352 C.ar    1  UNL1        0.0148
      3 C          15.1545   38.5625   11.8758 C.ar    1  UNL1        0.0041
      4 C          16.1497   39.1388   11.0862 C.ar    1  UNL1        0.0344
      5 C          15.7935   40.0184   10.0548 C.ar    1  UNL1        0.1328
      6 N          14.4782   40.2976    9.8422 N.ar    1  UNL1       -0.2349
      7 N          16.7765   40.6351    9.2109 N.pl3   1  UNL1       -0.2834
      8 H          17.6292   40.1532    9.1117 H       1  UNL1        0.1550
      9 C          16.6602   41.8723    8.4952 C.ar    1  UNL1        0.1332
     10 C          15.5233   42.0979    7.7142 C.ar    1  UNL1        0.0345
     11 C          15.3986   43.2987    7.0131 C.ar    1  UNL1        0.0045
     12 C          16.4061   44.2606    7.0973 C.ar    1  UNL1        0.0208
     13 C          17.5283   44.0029    7.8867 C.ar    1  UNL1        0.1003
     14 N          17.6310   42.8266    8.5621 N.ar    1  UNL1       -0.2290
     15 C          12.0655   40.0864   10.3057 C.3     1  UNL1        0.0458
     16 C           9.1555   40.0523    7.9894 C.3     1  UNL1        0.0540
     17 C          10.2467   38.9791    8.0430 C.3     1  UNL1        0.0157
     18 C          11.6409   39.5887    7.8734 C.3     1  UNL1        0.0018
     19 C          11.9083   40.6833    8.9083 C.3     1  UNL1        0.0060
     20 C          10.8124   41.7536    8.8565 C.3     1  UNL1        0.0018
     21 C           9.4195   41.1430    9.0285 C.3     1  UNL1        0.0157
     22 C           8.5041   39.6116    5.7845 C.3     1  UNL1        0.0858
     23 N           9.0631   40.6304    6.6561 N.3     1  UNL1       -0.2974
     24 H           8.4550   41.4492    6.6715 H       1  UNL1        0.1232
@<TRIPOS>BOND
     1    22    23    1
     2    16    23    1
     3    16    17    1
     4    17    18    1
     5    18    19    1
     6    19    15    1
     7    19    20    1
     8    15     1    1
     9     1     6   ar
    10     2     3   ar
    11     4     5   ar
    12     5     7    1
    13     9    14   ar
    14    10    11   ar
    15    12    13   ar
    16    20    21    1
    17    21    16    1
    18     7     9    1
    19     1     2   ar
    20     3     4   ar
    21     5     6   ar
    22     9    10   ar
    23    11    12   ar
    24    13    14   ar
    25    23    24    1
    26     7     8    1
@<TRIPOS>MOLECULE
MolPort-047-017-569 Molport-047-017-570 257224536 MCULE-3685565728 MCULE-4369250661 PubChem-110111171 ZINC000257224536
 24 26 0 0 0
SMALL
GASTEIGER

@<TRIPOS>ATOM
      1 C          11.1381   41.5874    8.4329 C.ar    1  UNL1        0.0604
      2 C          10.8070   40.6801    7.4215 C.ar    1  UNL1        0.0148
      3 C          11.5254   40.6993    6.2265 C.ar    1  UNL1        0.0041
      4 C          12.5568   41.6221    6.0519 C.ar    1  UNL1        0.0344
      5 C          12.8604   42.5250    7.0801 C.ar    1  UNL1        0.1328
      6 N          12.1423   42.4840    8.2358 N.ar    1  UNL1       -0.2349
      7 N          13.9079   43.4969    6.9510 N.pl3   1  UNL1       -0.2834
      8 H          13.6453   44.3750    6.5916 H       1  UNL1        0.1550
      9 C          15.2933   43.3368    7.2849 C.ar    1  UNL1        0.1332
     10 C          16.2049   44.3151    6.8782 C.ar    1  UNL1        0.0345
     11 C          17.5561   44.1705    7.1977 C.ar    1  UNL1        0.0045
     12 C          17.9845   43.0547    7.9180 C.ar    1  UNL1        0.0208
     13 C          17.0474   42.0966    8.3089 C.ar    1  UNL1        0.1003
     14 N          15.7352   42.2558    7.9877 N.ar    1  UNL1       -0.2290
     15 C          10.3751   41.6088    9.7162 C.3     1  UNL1        0.0458
     16 C           6.6754   41.6442   10.0986 C.3     1  UNL1        0.0540
     17 C           7.4185   41.5681    8.7616 C.3     1  UNL1        0.0157
     18 C           8.4094   42.7247    8.6047 C.3     1  UNL1        0.0018
     19 C           9.3988   42.7827    9.7703 C.3     1  UNL1        0.0060
     20 C           8.6531   42.8535   11.1075 C.3     1  UNL1        0.0018
     21 C           7.6646   41.6955   11.2639 C.3     1  UNL1        0.0157
     22 C           4.7241   42.5494    9.1750 C.3     1  UNL1        0.0858
     23 N           5.7878   42.7980   10.1326 N.3     1  UNL1       -0.2974
     24 H           5.3968   42.9109   11.0679 H       1  UNL1        0.1232
@<TRIPOS>BOND
     1    22    23    1
     2    16    23    1
     3    16    17    1
     4    17    18    1
     5    18    19    1
     6    19    15    1
     7    19    20    1
     8    15     1    1
     9     1     6   ar
    10     2     3   ar
    11     4     5   ar
    12     5     7    1
    13     9    14   ar
    14    10    11   ar
    15    12    13   ar
    16    20    21    1
    17    21    16    1
    18     7     9    1
    19     1     2   ar
    20     3     4   ar
    21     5     6   ar
    22     9    10   ar
    23    11    12   ar
    24    13    14   ar
    25    23    24    1
    26     7     8    1
@<TRIPOS>MOLECULE
MolPort-047-017-569 Molport-047-017-570 257224536 MCULE-3685565728 MCULE-4369250661 PubChem-110111171 ZINC000257224536
 24 26 0 0 0
SMALL
GASTEIGER

@<TRIPOS>ATOM
      1 C          15.0436   42.5009    7.0966 C.ar    1  UNL1        0.0604
      2 C          15.7301   43.5009    6.4007 C.ar    1  UNL1        0.0148
      3 C          17.0326   43.8239    6.7798 C.ar    1  UNL1        0.0041
      4 C          17.6309   43.1538    7.8470 C.ar    1  UNL1        0.0344
      5 C          16.9151   42.1618    8.5313 C.ar    1  UNL1        0.1328
      6 N          15.6450   41.8674    8.1398 N.ar    1  UNL1       -0.2349
      7 N          17.4812   41.4453    9.6379 N.pl3   1  UNL1       -0.2834
      8 H          18.0143   41.9758   10.2732 H       1  UNL1        0.1550
      9 C          17.3602   40.0456    9.9253 C.ar    1  UNL1        0.1332
     10 C          16.1165   39.5394   10.3128 C.ar    1  UNL1        0.0345
     11 C          15.9862   38.1784   10.5950 C.ar    1  UNL1        0.0045
     12 C          17.0945   37.3372   10.4882 C.ar    1  UNL1        0.0208
     13 C          18.3220   37.8757   10.0984 C.ar    1  UNL1        0.1003
     14 N          18.4284   39.2045    9.8279 N.ar    1  UNL1       -0.2290
     15 C          13.6402   42.1453    6.7311 C.3     1  UNL1        0.0458
     16 C          10.2200   41.6355    8.1012 C.3     1  UNL1        0.0540
     17 C          11.3290   42.4388    8.7870 C.3     1  UNL1        0.0157
     18 C          12.6004   41.6036    8.9605 C.3     1  UNL1        0.0018
     19 C          13.0899   41.0364    7.6265 C.3     1  UNL1        0.0060
     20 C          11.9770   40.2373    6.9395 C.3     1  UNL1        0.0018
     21 C          10.7075   41.0742    6.7647 C.3     1  UNL1        0.0157
     22 C           8.7886   41.1403    9.8862 C.3     1  UNL1        0.0858
     23 N           9.7500   40.5609    8.9642 N.3     1  UNL1       -0.2974
     24 H           9.3038   39.8336    8.4053 H       1  UNL1        0.1232
@<TRIPOS>BOND
     1    22    23    1
     2    16    23    1
     3    16    17    1
     4    17    18    1
     5    18    19    1
     6    19    15    1
     7    19    20    1
     8    15     1    1
     9     1     6   ar
    10     2     3   ar
    11     4     5   ar
    12     5     7    1
    13     9    14   ar
    14    10    11   ar
    15    12    13   ar
    16    20    21    1
    17    21    16    1
    18     7     9    1
    19     1     2   ar
    20     3     4   ar
    21     5     6   ar
    22     9    10   ar
    23    11    12   ar
    24    13    14   ar
    25    23    24    1
    26     7     8    1
@<TRIPOS>MOLECULE
MolPort-047-017-569 Molport-047-017-570 257224536 MCULE-3685565728 MCULE-4369250661 PubChem-110111171 ZINC000257224536
 24 26 0 0 0
SMALL
GASTEIGER

@<TRIPOS>ATOM
      1 C          13.8125   42.4480    6.6868 C.ar    1  UNL1        0.0604
      2 C          14.4952   43.6061    6.3018 C.ar    1  UNL1        0.0148
      3 C          15.7733   43.8436    6.8064 C.ar    1  UNL1        0.0041
      4 C          16.3511   42.9311    7.6893 C.ar    1  UNL1        0.0344
      5 C          15.6393   41.7833    8.0639 C.ar    1  UNL1        0.1328
      6 N          14.3932   41.5772    7.5562 N.ar    1  UNL1       -0.2349
      7 N          16.1849   40.8153    8.9716 N.pl3   1  UNL1       -0.2834
      8 H          17.1554   40.6611    8.9120 H       1  UNL1        0.1550
      9 C          15.4798   40.0466    9.9557 C.ar    1  UNL1        0.1332
     10 C          14.0874   40.1468   10.0223 C.ar    1  UNL1        0.0345
     11 C          13.3899   39.4031   10.9758 C.ar    1  UNL1        0.0045
     12 C          14.0856   38.5685   11.8515 C.ar    1  UNL1        0.0208
     13 C          15.4763   38.4919   11.7574 C.ar    1  UNL1        0.1003
     14 N          16.1376   39.2247   10.8214 N.ar    1  UNL1       -0.2290
     15 C          12.4339   42.1736    6.1827 C.3     1  UNL1        0.0458
     16 C           9.0008   40.7598    5.9597 C.3     1  UNL1        0.0540
     17 C           9.4578   41.7954    6.9913 C.3     1  UNL1        0.0157
     18 C          10.6816   41.3072    7.7711 C.3     1  UNL1        0.0018
     19 C          11.8331   40.9306    6.8369 C.3     1  UNL1        0.0060
     20 C          11.3724   39.8980    5.8021 C.3     1  UNL1        0.0018
     21 C          10.1504   40.3884    5.0218 C.3     1  UNL1        0.0157
     22 C           7.0417   39.5506    6.3838 C.3     1  UNL1        0.0858
     23 N           8.4753   39.5714    6.6170 N.3     1  UNL1       -0.2974
     24 H           8.9058   38.7348    6.2229 H       1  UNL1        0.1232
@<TRIPOS>BOND
     1    22    23    1
     2    16    23    1
     3    16    17    1
     4    17    18    1
     5    18    19    1
     6    19    15    1
     7    19    20    1
     8    15     1    1
     9     1     6   ar
    10     2     3   ar
    11     4     5   ar
    12     5     7    1
    13     9    14   ar
    14    10    11   ar
    15    12    13   ar
    16    20    21    1
    17    21    16    1
    18     7     9    1
    19     1     2   ar
    20     3     4   ar
    21     5     6   ar
    22     9    10   ar
    23    11    12   ar
    24    13    14   ar
    25    23    24    1
    26     7     8    1
@<TRIPOS>MOLECULE
MolPort-047-017-569 Molport-047-017-570 257224536 MCULE-3685565728 MCULE-4369250661 PubChem-110111171 ZINC000257224536
 24 26 0 0 0
SMALL
GASTEIGER

@<TRIPOS>ATOM
      1 C          14.2138   39.1798   10.7113 C.ar    1  UNL1        0.0604
      2 C          14.8205   38.6638   11.8607 C.ar    1  UNL1        0.0148
      3 C          16.1890   38.8513   12.0520 C.ar    1  UNL1        0.0041
      4 C          16.9346   39.5427   11.0970 C.ar    1  UNL1        0.0344
      5 C          16.3007   40.0412    9.9506 C.ar    1  UNL1        0.1328
      6 N          14.9636   39.8429    9.7897 N.ar    1  UNL1       -0.2349
      7 N          17.0209   40.7553    8.9358 N.pl3   1  UNL1       -0.2834
      8 H          17.8862   40.3720    8.6645 H       1  UNL1        0.1550
      9 C          16.6260   41.9631    8.2712 C.ar    1  UNL1        0.1332
     10 C          15.3739   42.0167    7.6526 C.ar    1  UNL1        0.0345
     11 C          14.9781   43.1871    7.0026 C.ar    1  UNL1        0.0045
     12 C          15.8324   44.2902    6.9759 C.ar    1  UNL1        0.0208
     13 C          17.0760   44.2027    7.6041 C.ar    1  UNL1        0.1003
     14 N          17.4432   43.0532    8.2320 N.ar    1  UNL1       -0.2290
     15 C          12.7550   38.9782   10.4644 C.3     1  UNL1        0.0458
     16 C          13.2571   35.2937   10.3768 C.3     1  UNL1        0.0540
     17 C          14.3190   36.3329   10.0054 C.3     1  UNL1        0.0157
     18 C          13.8120   37.2897    8.9229 C.3     1  UNL1        0.0018
     19 C          12.5087   37.9742    9.3396 C.3     1  UNL1        0.0060
     20 C          11.4491   36.9326    9.7159 C.3     1  UNL1        0.0018
     21 C          11.9564   35.9783   10.7995 C.3     1  UNL1        0.0157
     22 C          14.2602   33.6772    9.0128 C.3     1  UNL1        0.0858
     23 N          13.0155   34.3813    9.2680 N.3     1  UNL1       -0.2974
     24 H          12.2824   33.7168    9.5154 H       1  UNL1        0.1232
@<TRIPOS>BOND
     1    22    23    1
     2    16    23    1
     3    16    17    1
     4    17    18    1
     5    18    19    1
     6    19    15    1
     7    19    20    1
     8    15     1    1
     9     1     6   ar
    10     2     3   ar
    11     4     5   ar
    12     5     7    1
    13     9    14   ar
    14    10    11   ar
    15    12    13   ar
    16    20    21    1
    17    21    16    1
    18     7     9    1
    19     1     2   ar
    20     3     4   ar
    21     5     6   ar
    22     9    10   ar
    23    11    12   ar
    24    13    14   ar
    25    23    24    1
    26     7     8    1
