@<TRIPOS>MOLECULE
Molport-020-275-217 MCULE-2354780275 PubChem-110252894
 23 25 0 0 0
SMALL
GASTEIGER

@<TRIPOS>ATOM
      1 C          11.6316   40.1296    8.6536 C.ar    1  UNL1        0.0805
      2 C          10.2402   40.2877    8.6678 C.ar    1  UNL1        0.1137
      3 C          10.3864   41.7526    6.8151 C.ar    1  UNL1        0.1332
      4 C          11.7785   41.6000    6.7943 C.ar    1  UNL1        0.1533
      5 N           9.6503   41.0950    7.7487 N.ar    1  UNL1       -0.2382
      6 N          12.3630   40.7902    7.7173 N.ar    1  UNL1       -0.2316
      7 C          14.6647   38.0690   10.8959 C.3     1  UNL1        0.0721
      8 C          13.8407   39.1476   11.6029 C.3     1  UNL1        0.0178
      9 C          13.2020   40.0730   10.5822 C.3     1  UNL1        0.0088
     10 C          12.3277   39.2527    9.6449 C.3     1  UNL1        0.0579
     11 C          13.1683   38.1862    8.9379 C.3     1  UNL1        0.0780
     12 N          13.8941   37.3235    9.8812 N.3     1  UNL1       -0.2736
     13 C          13.3410   34.8706    9.8172 C.3     1  UNL1        0.0173
     14 C          13.0456   36.2426   10.4108 C.3     1  UNL1        0.0576
     15 C          11.5761   36.5821   10.2408 C.3     1  UNL1        0.0173
     16 N          12.6060   42.2694    5.8322 N.pl3   1  UNL1       -0.2667
     17 H          12.3344   42.1843    4.8897 H       1  UNL1        0.1565
     18 C          13.7831   43.0483    6.0857 C.ar    1  UNL1        0.2218
     19 C          15.9274   43.2945    7.0599 C.ar    1  UNL1        0.1034
     20 C          16.0259   44.5857    6.5453 C.ar    1  UNL1        0.0414
     21 C          14.9621   45.0794    5.7928 C.ar    1  UNL1        0.1034
     22 N          14.8146   42.5524    6.8229 N.ar    1  UNL1       -0.2120
     23 N          13.8657   44.3064    5.5774 N.ar    1  UNL1       -0.2120
@<TRIPOS>BOND
     1    13    14    1
     2    14    15    1
     3    14    12    1
     4     7    12    1
     5     7     8    1
     6     8     9    1
     7     9    10    1
     8    10    11    1
     9    10     1    1
    10    11    12    1
    11     1     6   ar
    12     2     5   ar
    13     3     4   ar
    14     4    16    1
    15    18    23   ar
    16    19    22   ar
    17    20    21   ar
    18    16    18    1
    19     1     2   ar
    20     3     5   ar
    21     4     6   ar
    22    18    22   ar
    23    19    20   ar
    24    21    23   ar
    25    16    17    1
@<TRIPOS>MOLECULE
Molport-020-275-217 MCULE-2354780275 PubChem-110252894
 23 25 0 0 0
SMALL
GASTEIGER

@<TRIPOS>ATOM
      1 C          12.2729   39.8066    8.3410 C.ar    1  UNL1        0.0805
      2 C          10.8896   39.5880    8.3394 C.ar    1  UNL1        0.1137
      3 C          10.6275   41.2502    6.6756 C.ar    1  UNL1        0.1332
      4 C          12.0099   41.4751    6.6714 C.ar    1  UNL1        0.1533
      5 N          10.0995   40.3144    7.5071 N.ar    1  UNL1       -0.2382
      6 N          12.7955   40.7444    7.5070 N.ar    1  UNL1       -0.2316
      7 C          14.2182   38.2025   11.8218 C.3     1  UNL1        0.0721
      8 C          13.3707   37.2626   10.9612 C.3     1  UNL1        0.0178
      9 C          12.4000   38.0627   10.1106 C.3     1  UNL1        0.0088
     10 C          13.1843   39.0331    9.2394 C.3     1  UNL1        0.0579
     11 C          14.0178   39.9726   10.1150 C.3     1  UNL1        0.0780
     12 N          14.9045   39.2468   11.0358 N.3     1  UNL1       -0.2736
     13 C          16.9534   37.7947   11.1784 C.3     1  UNL1        0.0173
     14 C          16.1525   38.8179   10.3822 C.3     1  UNL1        0.0576
     15 C          17.0208   40.0163   10.0452 C.3     1  UNL1        0.0173
     16 N          12.6225   42.4498    5.8152 N.pl3   1  UNL1       -0.2667
     17 H          12.1612   42.6345    4.9653 H       1  UNL1        0.1565
     18 C          13.8295   43.1860    6.0552 C.ar    1  UNL1        0.2218
     19 C          15.9980   43.3496    6.9928 C.ar    1  UNL1        0.1034
     20 C          16.1308   44.6423    6.4897 C.ar    1  UNL1        0.0414
     21 C          15.0710   45.1796    5.7618 C.ar    1  UNL1        0.1034
     22 N          14.8568   42.6478    6.7684 N.ar    1  UNL1       -0.2120
     23 N          13.9454   44.4462    5.5585 N.ar    1  UNL1       -0.2120
@<TRIPOS>BOND
     1    13    14    1
     2    14    15    1
     3    14    12    1
     4     7    12    1
     5     7     8    1
     6     8     9    1
     7     9    10    1
     8    10    11    1
     9    10     1    1
    10    11    12    1
    11     1     6   ar
    12     2     5   ar
    13     3     4   ar
    14     4    16    1
    15    18    23   ar
    16    19    22   ar
    17    20    21   ar
    18    16    18    1
    19     1     2   ar
    20     3     5   ar
    21     4     6   ar
    22    18    22   ar
    23    19    20   ar
    24    21    23   ar
    25    16    17    1
@<TRIPOS>MOLECULE
Molport-020-275-217 MCULE-2354780275 PubChem-110252894
 23 25 0 0 0
SMALL
GASTEIGER

@<TRIPOS>ATOM
      1 C           9.6466   41.1320    7.6765 C.ar    1  UNL1        0.0805
      2 C          10.1619   40.0085    8.3350 C.ar    1  UNL1        0.1137
      3 C          12.2567   40.3554    7.2905 C.ar    1  UNL1        0.1332
      4 C          11.7489   41.4801    6.6278 C.ar    1  UNL1        0.1533
      5 N          11.4542   39.6467    8.1269 N.ar    1  UNL1       -0.2382
      6 N          10.4541   41.8372    6.8406 N.ar    1  UNL1       -0.2316
      7 C           6.1588   43.5002    8.5134 C.3     1  UNL1        0.0721
      8 C           6.3920   43.0268    7.0768 C.3     1  UNL1        0.0178
      9 C           7.8512   42.6569    6.8767 C.3     1  UNL1        0.0088
     10 C           8.2302   41.5700    7.8720 C.3     1  UNL1        0.0579
     11 C           8.0017   42.0627    9.3035 C.3     1  UNL1        0.0780
     12 N           6.6265   42.5325    9.5253 N.3     1  UNL1       -0.2736
     13 C           4.3030   41.6170    9.2253 C.3     1  UNL1        0.0173
     14 C           5.6991   41.4231    9.8045 C.3     1  UNL1        0.0576
     15 C           5.6155   41.1563   11.2963 C.3     1  UNL1        0.0173
     16 N          12.5497   42.2659    5.7335 N.pl3   1  UNL1       -0.2667
     17 H          12.2543   42.2941    4.7948 H       1  UNL1        0.1565
     18 C          13.7309   43.0149    6.0500 C.ar    1  UNL1        0.2218
     19 C          15.8296   43.2043    7.1305 C.ar    1  UNL1        0.1034
     20 C          15.9841   44.4955    6.6299 C.ar    1  UNL1        0.0414
     21 C          14.9708   45.0187    5.8292 C.ar    1  UNL1        0.1034
     22 N          14.7127   42.4903    6.8339 N.ar    1  UNL1       -0.2120
     23 N          13.8684   44.2735    5.5548 N.ar    1  UNL1       -0.2120
@<TRIPOS>BOND
     1    13    14    1
     2    14    15    1
     3    14    12    1
     4     7    12    1
     5     7     8    1
     6     8     9    1
     7     9    10    1
     8    10    11    1
     9    10     1    1
    10    11    12    1
    11     1     6   ar
    12     2     5   ar
    13     3     4   ar
    14     4    16    1
    15    18    23   ar
    16    19    22   ar
    17    20    21   ar
    18    16    18    1
    19     1     2   ar
    20     3     5   ar
    21     4     6   ar
    22    18    22   ar
    23    19    20   ar
    24    21    23   ar
    25    16    17    1
@<TRIPOS>MOLECULE
Molport-020-275-217 MCULE-2354780275 PubChem-110252894
 23 25 0 0 0
SMALL
GASTEIGER

@<TRIPOS>ATOM
      1 C          11.8525   41.2301    9.7761 C.ar    1  UNL1        0.0805
      2 C          11.7729   40.3903   10.8940 C.ar    1  UNL1        0.1137
      3 C          14.0181   39.7240   10.5549 C.ar    1  UNL1        0.1332
      4 C          14.1058   40.5612    9.4355 C.ar    1  UNL1        0.1533
      5 N          12.8570   39.6573   11.2573 N.ar    1  UNL1       -0.2382
      6 N          13.0168   41.2925    9.0770 N.ar    1  UNL1       -0.2316
      7 C           7.9827   43.0885    9.5646 C.3     1  UNL1        0.0721
      8 C           9.2008   43.9697    9.8509 C.3     1  UNL1        0.0178
      9 C          10.3509   43.1232   10.3676 C.3     1  UNL1        0.0088
     10 C          10.6864   42.0561    9.3357 C.3     1  UNL1        0.0579
     11 C           9.4617   41.1770    9.0688 C.3     1  UNL1        0.0780
     12 N           8.2841   41.9584    8.6640 N.3     1  UNL1       -0.2736
     13 C           7.1157   43.1230    6.7653 C.3     1  UNL1        0.0173
     14 C           8.3049   42.2910    7.2295 C.3     1  UNL1        0.0576
     15 C           8.4248   41.0330    6.3888 C.3     1  UNL1        0.0173
     16 N          15.3055   40.6715    8.6564 N.pl3   1  UNL1       -0.2667
     17 H          15.7342   39.8249    8.3943 H       1  UNL1        0.1565
     18 C          15.9519   41.8734    8.2157 C.ar    1  UNL1        0.2218
     19 C          16.0349   43.7797    6.8132 C.ar    1  UNL1        0.1034
     20 C          17.2333   44.1763    7.4033 C.ar    1  UNL1        0.0414
     21 C          17.7670   43.3792    8.4140 C.ar    1  UNL1        0.1034
     22 N          15.4184   42.6421    7.2268 N.ar    1  UNL1       -0.2120
     23 N          17.1206   42.2483    8.8003 N.ar    1  UNL1       -0.2120
@<TRIPOS>BOND
     1    13    14    1
     2    14    15    1
     3    14    12    1
     4     7    12    1
     5     7     8    1
     6     8     9    1
     7     9    10    1
     8    10    11    1
     9    10     1    1
    10    11    12    1
    11     1     6   ar
    12     2     5   ar
    13     3     4   ar
    14     4    16    1
    15    18    23   ar
    16    19    22   ar
    17    20    21   ar
    18    16    18    1
    19     1     2   ar
    20     3     5   ar
    21     4     6   ar
    22    18    22   ar
    23    19    20   ar
    24    21    23   ar
    25    16    17    1
@<TRIPOS>MOLECULE
Molport-020-275-217 MCULE-2354780275 PubChem-110252894
 23 25 0 0 0
SMALL
GASTEIGER

@<TRIPOS>ATOM
      1 C          12.4616   41.6227    6.8838 C.ar    1  UNL1        0.0805
      2 C          12.8498   42.7303    6.1198 C.ar    1  UNL1        0.1137
      3 C          15.0172   42.6234    7.0635 C.ar    1  UNL1        0.1332
      4 C          14.6368   41.5155    7.8313 C.ar    1  UNL1        0.1533
      5 N          14.1178   43.2045    6.2272 N.ar    1  UNL1       -0.2382
      6 N          13.3657   41.0454    7.7190 N.ar    1  UNL1       -0.2316
      7 C           8.8295   39.8482    5.4235 C.3     1  UNL1        0.0721
      8 C           9.6817   39.0544    6.4163 C.3     1  UNL1        0.0178
      9 C          11.1033   39.5882    6.4315 C.3     1  UNL1        0.0088
     10 C          11.0769   41.0641    6.8013 C.3     1  UNL1        0.0579
     11 C          10.2300   41.8454    5.7932 C.3     1  UNL1        0.0780
     12 N           8.8694   41.3047    5.6608 N.3     1  UNL1       -0.2736
     13 C           6.9072   42.7663    6.2442 C.3     1  UNL1        0.0173
     14 C           7.9736   41.7893    6.7244 C.3     1  UNL1        0.0576
     15 C           8.7720   42.4014    7.8608 C.3     1  UNL1        0.0173
     16 N          15.5437   40.8619    8.7306 N.pl3   1  UNL1       -0.2667
     17 H          16.5030   41.0067    8.5636 H       1  UNL1        0.1565
     18 C          15.2132   40.0218    9.8449 C.ar    1  UNL1        0.2218
     19 C          13.6831   39.2873   11.4964 C.ar    1  UNL1        0.1034
     20 C          14.6258   38.3850   11.9852 C.ar    1  UNL1        0.0414
     21 C          15.8722   38.3314   11.3647 C.ar    1  UNL1        0.1034
     22 N          13.9909   40.0855   10.4411 N.ar    1  UNL1       -0.2120
     23 N          16.1425   39.1461   10.3114 N.ar    1  UNL1       -0.2120
@<TRIPOS>BOND
     1    13    14    1
     2    14    15    1
     3    14    12    1
     4     7    12    1
     5     7     8    1
     6     8     9    1
     7     9    10    1
     8    10    11    1
     9    10     1    1
    10    11    12    1
    11     1     6   ar
    12     2     5   ar
    13     3     4   ar
    14     4    16    1
    15    18    23   ar
    16    19    22   ar
    17    20    21   ar
    18    16    18    1
    19     1     2   ar
    20     3     5   ar
    21     4     6   ar
    22    18    22   ar
    23    19    20   ar
    24    21    23   ar
    25    16    17    1
@<TRIPOS>MOLECULE
Molport-020-275-217 MCULE-2354780275 PubChem-110252894
 23 25 0 0 0
SMALL
GASTEIGER

@<TRIPOS>ATOM
      1 C          12.9359   40.2166    9.7768 C.ar    1  UNL1        0.0805
      2 C          12.9953   39.2195   10.7583 C.ar    1  UNL1        0.1137
      3 C          15.3587   39.2423   10.6405 C.ar    1  UNL1        0.1332
      4 C          15.3079   40.2395    9.6581 C.ar    1  UNL1        0.1533
      5 N          14.2046   38.7559   11.1672 N.ar    1  UNL1       -0.2382
      6 N          14.0939   40.6994    9.2532 N.ar    1  UNL1       -0.2316
      7 C           8.7323   40.9480    9.2590 C.3     1  UNL1        0.0721
      8 C           9.5980   42.0590    9.8577 C.3     1  UNL1        0.0178
      9 C          10.8879   41.4786   10.4104 C.3     1  UNL1        0.0088
     10 C          11.6290   40.7589    9.2930 C.3     1  UNL1        0.0579
     11 C          10.7544   39.6444    8.7125 C.3     1  UNL1        0.0780
     12 N           9.4462   40.1347    8.2550 N.3     1  UNL1       -0.2736
     13 C           8.6406   41.9588    6.7219 C.3     1  UNL1        0.0173
     14 C           9.5148   40.7245    6.9073 C.3     1  UNL1        0.0576
     15 C           9.1870   39.6862    5.8500 C.3     1  UNL1        0.0173
     16 N          16.4934   40.7900    9.0667 N.pl3   1  UNL1       -0.2667
     17 H          17.3181   40.2628    9.1721 H       1  UNL1        0.1565
     18 C          16.6151   42.0201    8.3397 C.ar    1  UNL1        0.2218
     19 C          15.8459   43.5238    6.6799 C.ar    1  UNL1        0.1034
     20 C          16.8921   44.3975    6.9698 C.ar    1  UNL1        0.0414
     21 C          17.7941   44.0386    7.9693 C.ar    1  UNL1        0.1034
     22 N          15.7260   42.3573    7.3654 N.ar    1  UNL1       -0.2120
     23 N          17.6406   42.8630    8.6330 N.ar    1  UNL1       -0.2120
@<TRIPOS>BOND
     1    13    14    1
     2    14    15    1
     3    14    12    1
     4     7    12    1
     5     7     8    1
     6     8     9    1
     7     9    10    1
     8    10    11    1
     9    10     1    1
    10    11    12    1
    11     1     6   ar
    12     2     5   ar
    13     3     4   ar
    14     4    16    1
    15    18    23   ar
    16    19    22   ar
    17    20    21   ar
    18    16    18    1
    19     1     2   ar
    20     3     5   ar
    21     4     6   ar
    22    18    22   ar
    23    19    20   ar
    24    21    23   ar
    25    16    17    1
@<TRIPOS>MOLECULE
Molport-020-275-217 MCULE-2354780275 PubChem-110252894
 23 25 0 0 0
SMALL
GASTEIGER

@<TRIPOS>ATOM
      1 C          10.0783   41.6667    9.5727 C.ar    1  UNL1        0.0805
      2 C          10.8494   40.9567   10.5014 C.ar    1  UNL1        0.1137
      3 C          12.7186   41.0947    9.0568 C.ar    1  UNL1        0.1332
      4 C          11.9541   41.8050    8.1226 C.ar    1  UNL1        0.1533
      5 N          12.1509   40.6875   10.2221 N.ar    1  UNL1       -0.2382
      6 N          10.6516   42.0714    8.4083 N.ar    1  UNL1       -0.2316
      7 C           5.8321   41.3223   10.1424 C.3     1  UNL1        0.0721
      8 C           6.7024   41.6905   11.3462 C.3     1  UNL1        0.0178
      9 C           8.1451   41.2902   11.0925 C.3     1  UNL1        0.0088
     10 C           8.6411   41.9869    9.8338 C.3     1  UNL1        0.0579
     11 C           7.7674   41.6000    8.6376 C.3     1  UNL1        0.0780
     12 N           6.3413   41.8708    8.8699 N.3     1  UNL1       -0.2736
     13 C           4.5187   43.6032    8.8097 C.3     1  UNL1        0.0173
     14 C           5.9946   43.2789    8.6133 C.3     1  UNL1        0.0576
     15 C           6.4432   43.6973    7.2250 C.3     1  UNL1        0.0173
     16 N          12.5003   42.2595    6.8762 N.pl3   1  UNL1       -0.2667
     17 H          11.9828   42.0402    6.0679 H       1  UNL1        0.1565
     18 C          13.7134   42.9967    6.6726 C.ar    1  UNL1        0.2218
     19 C          14.8837   44.8329    5.7417 C.ar    1  UNL1        0.1034
     20 C          16.0722   44.3788    6.3101 C.ar    1  UNL1        0.0414
     21 C          16.0375   43.2087    7.0660 C.ar    1  UNL1        0.1034
     22 N          13.7317   44.1385    5.9314 N.ar    1  UNL1       -0.2120
     23 N          14.8655   42.5420    7.2330 N.ar    1  UNL1       -0.2120
@<TRIPOS>BOND
     1    13    14    1
     2    14    15    1
     3    14    12    1
     4     7    12    1
     5     7     8    1
     6     8     9    1
     7     9    10    1
     8    10    11    1
     9    10     1    1
    10    11    12    1
    11     1     6   ar
    12     2     5   ar
    13     3     4   ar
    14     4    16    1
    15    18    23   ar
    16    19    22   ar
    17    20    21   ar
    18    16    18    1
    19     1     2   ar
    20     3     5   ar
    21     4     6   ar
    22    18    22   ar
    23    19    20   ar
    24    21    23   ar
    25    16    17    1
@<TRIPOS>MOLECULE
Molport-020-275-217 MCULE-2354780275 PubChem-110252894
 23 25 0 0 0
SMALL
GASTEIGER

@<TRIPOS>ATOM
      1 C          13.7807   39.5785   10.1935 C.ar    1  UNL1        0.0805
      2 C          14.1408   38.6777   11.2035 C.ar    1  UNL1        0.1137
      3 C          16.4237   39.1898   10.8482 C.ar    1  UNL1        0.1332
      4 C          16.0719   40.0923    9.8365 C.ar    1  UNL1        0.1533
      5 N          15.4531   38.5045   11.5073 N.ar    1  UNL1       -0.2382
      6 N          14.7561   40.2612    9.5373 N.ar    1  UNL1       -0.2316
      7 C          10.1822   40.2855    7.9520 C.3     1  UNL1        0.0721
      8 C          10.3646   38.9254    8.6294 C.3     1  UNL1        0.0178
      9 C          11.8329   38.6826    8.9318 C.3     1  UNL1        0.0088
     10 C          12.3498   39.8034    9.8220 C.3     1  UNL1        0.0579
     11 C          12.1703   41.1551    9.1259 C.3     1  UNL1        0.0780
     12 N          10.7795   41.3982    8.7164 N.3     1  UNL1       -0.2736
     13 C           8.4571   41.8915    9.5469 C.3     1  UNL1        0.0173
     14 C           9.9553   41.9078    9.8253 C.3     1  UNL1        0.0576
     15 C          10.3988   43.3028   10.2264 C.3     1  UNL1        0.0173
     16 N          17.0534   40.8428    9.1074 N.pl3   1  UNL1       -0.2667
     17 H          17.9719   40.4887    9.1220 H       1  UNL1        0.1565
     18 C          16.8503   42.0496    8.3597 C.ar    1  UNL1        0.2218
     19 C          15.5265   43.3971    6.9315 C.ar    1  UNL1        0.1034
     20 C          16.5066   44.3876    6.9381 C.ar    1  UNL1        0.0414
     21 C          17.6642   44.1659    7.6813 C.ar    1  UNL1        0.1034
     22 N          15.7138   42.2520    7.6379 N.ar    1  UNL1       -0.2120
     23 N          17.8148   43.0074    8.3751 N.ar    1  UNL1       -0.2120
@<TRIPOS>BOND
     1    13    14    1
     2    14    15    1
     3    14    12    1
     4     7    12    1
     5     7     8    1
     6     8     9    1
     7     9    10    1
     8    10    11    1
     9    10     1    1
    10    11    12    1
    11     1     6   ar
    12     2     5   ar
    13     3     4   ar
    14     4    16    1
    15    18    23   ar
    16    19    22   ar
    17    20    21   ar
    18    16    18    1
    19     1     2   ar
    20     3     5   ar
    21     4     6   ar
    22    18    22   ar
    23    19    20   ar
    24    21    23   ar
    25    16    17    1
@<TRIPOS>MOLECULE
Molport-020-275-217 MCULE-2354780275 PubChem-110252894
 23 25 0 0 0
SMALL
GASTEIGER

@<TRIPOS>ATOM
      1 C          13.4787   42.1225    7.3031 C.ar    1  UNL1        0.0805
      2 C          14.0115   43.2241    6.6220 C.ar    1  UNL1        0.1137
      3 C          16.1430   42.7629    7.5406 C.ar    1  UNL1        0.1332
      4 C          15.6179   41.6597    8.2254 C.ar    1  UNL1        0.1533
      5 N          15.3305   43.5185    6.7564 N.ar    1  UNL1       -0.2382
      6 N          14.2964   41.3702    8.0865 N.ar    1  UNL1       -0.2316
      7 C           9.6348   40.3140    7.9564 C.3     1  UNL1        0.0721
      8 C           9.8011   41.8046    8.2606 C.3     1  UNL1        0.0178
      9 C          11.2701   42.1410    8.4478 C.3     1  UNL1        0.0088
     10 C          12.0330   41.7582    7.1879 C.3     1  UNL1        0.0579
     11 C          11.8655   40.2631    6.9038 C.3     1  UNL1        0.0780
     12 N          10.4545   39.8605    6.8155 N.3     1  UNL1       -0.2736
     13 C           8.4858   39.5578    5.2794 C.3     1  UNL1        0.0173
     14 C           9.8813   40.1338    5.4867 C.3     1  UNL1        0.0576
     15 C          10.8149   39.6536    4.3907 C.3     1  UNL1        0.0173
     16 N          16.4281   40.8268    9.0670 N.pl3   1  UNL1       -0.2667
     17 H          17.3915   41.0286    9.0819 H       1  UNL1        0.1565
     18 C          15.9957   39.7340    9.8888 C.ar    1  UNL1        0.2218
     19 C          14.4795   38.7939   11.4461 C.ar    1  UNL1        0.1034
     20 C          15.2049   37.6041   11.4520 C.ar    1  UNL1        0.0414
     21 C          16.3397   37.5189   10.6479 C.ar    1  UNL1        0.1034
     22 N          14.8846   39.8321   10.6695 N.ar    1  UNL1       -0.2120
     23 N          16.7130   38.5792    9.8847 N.ar    1  UNL1       -0.2120
@<TRIPOS>BOND
     1    13    14    1
     2    14    15    1
     3    14    12    1
     4     7    12    1
     5     7     8    1
     6     8     9    1
     7     9    10    1
     8    10    11    1
     9    10     1    1
    10    11    12    1
    11     1     6   ar
    12     2     5   ar
    13     3     4   ar
    14     4    16    1
    15    18    23   ar
    16    19    22   ar
    17    20    21   ar
    18    16    18    1
    19     1     2   ar
    20     3     5   ar
    21     4     6   ar
    22    18    22   ar
    23    19    20   ar
    24    21    23   ar
    25    16    17    1
@<TRIPOS>MOLECULE
Molport-020-275-217 MCULE-2354780275 PubChem-110252894
 23 25 0 0 0
SMALL
GASTEIGER

@<TRIPOS>ATOM
      1 C           9.4083   41.7281    7.1984 C.ar    1  UNL1        0.0805
      2 C           9.0658   41.2986    5.9102 C.ar    1  UNL1        0.1137
      3 C          11.3585   41.0343    5.3872 C.ar    1  UNL1        0.1332
      4 C          11.7094   41.4633    6.6735 C.ar    1  UNL1        0.1533
      5 N          10.0482   40.9617    5.0351 N.ar    1  UNL1       -0.2382
      6 N          10.7210   41.7990    7.5450 N.ar    1  UNL1       -0.2316
      7 C           6.1861   41.5639   10.0381 C.3     1  UNL1        0.0721
      8 C           7.5844   41.9297   10.5413 C.3     1  UNL1        0.0178
      9 C           8.6367   41.4671    9.5490 C.3     1  UNL1        0.0088
     10 C           8.3633   42.1107    8.1973 C.3     1  UNL1        0.0579
     11 C           6.9661   41.7265    7.7032 C.3     1  UNL1        0.0780
     12 N           5.9135   42.0585    8.6741 N.3     1  UNL1       -0.2736
     13 C           4.0319   43.7145    8.8837 C.3     1  UNL1        0.0173
     14 C           5.5077   43.4717    8.5914 C.3     1  UNL1        0.0576
     15 C           5.8782   44.0581    7.2415 C.3     1  UNL1        0.0173
     16 N          13.0758   41.5595    7.1003 N.pl3   1  UNL1       -0.2667
     17 H          13.4100   40.8228    7.6614 H       1  UNL1        0.1565
     18 C          14.0108   42.6055    6.8033 C.ar    1  UNL1        0.2218
     19 C          14.5433   44.6687    5.7700 C.ar    1  UNL1        0.1034
     20 C          15.8455   44.5915    6.2600 C.ar    1  UNL1        0.0414
     21 C          16.1961   43.4852    7.0312 C.ar    1  UNL1        0.1034
     22 N          13.6536   43.6806    6.0483 N.ar    1  UNL1       -0.2120
     23 N          15.2779   42.5172    7.2879 N.ar    1  UNL1       -0.2120
@<TRIPOS>BOND
     1    13    14    1
     2    14    15    1
     3    14    12    1
     4     7    12    1
     5     7     8    1
     6     8     9    1
     7     9    10    1
     8    10    11    1
     9    10     1    1
    10    11    12    1
    11     1     6   ar
    12     2     5   ar
    13     3     4   ar
    14     4    16    1
    15    18    23   ar
    16    19    22   ar
    17    20    21   ar
    18    16    18    1
    19     1     2   ar
    20     3     5   ar
    21     4     6   ar
    22    18    22   ar
    23    19    20   ar
    24    21    23   ar
    25    16    17    1
