@<TRIPOS>MOLECULE
MolPort-020-292-519 MCULE-7945916672 PubChem-110264987
 33 36 0 0 0
SMALL
GASTEIGER

@<TRIPOS>ATOM
      1 C          12.4633   41.4409    7.8520 C.ar    1  UNL1        0.0528
      2 C          12.8754   40.1199    8.0428 C.ar    1  UNL1        0.0294
      3 C          11.9942   39.1928    8.6052 C.ar    1  UNL1        0.0611
      4 C          10.3121   40.8603    8.7904 C.ar    1  UNL1        0.0602
      5 C          11.1665   41.8117    8.2311 C.ar    1  UNL1        0.0294
      6 C           8.9354   41.2457    9.1953 C.3     1  UNL1        0.0521
      7 N          10.7388   39.5812    8.9650 N.ar    1  UNL1       -0.2538
      8 C          12.4422   37.7834    8.8077 C.3     1  UNL1        0.0602
      9 C          11.8793   37.2197   10.1134 C.3     1  UNL1        0.0094
     10 C          12.3390   35.7769   10.3097 C.3     1  UNL1        0.0220
     11 C          13.8635   35.7077   10.3092 C.3     1  UNL1        0.0937
     12 C          13.9681   37.6992    8.8052 C.3     1  UNL1        0.0996
     13 C          15.1285   35.5835    8.1112 C.2     1  UNL1        0.2505
     14 N          14.3829   36.3284    9.0921 N.am    1  UNL1       -0.2757
     15 O          15.1324   35.9819    6.9136 O.2     1  UNL1       -0.2699
     16 C          15.9020   34.3677    8.4574 C.ar    1  UNL1        0.0710
     17 C          15.2733   33.1155    8.4604 C.ar    1  UNL1        0.0829
     18 C          17.3068   32.0336    9.0392 C.ar    1  UNL1        0.2610
     19 C          17.9763   33.2582    9.0360 C.ar    1  UNL1        0.0609
     20 C          17.2707   34.4234    8.7405 C.ar    1  UNL1        0.0109
     21 C          15.2562   30.7167    8.7421 C.3     1  UNL1        0.1336
     22 N          15.9712   31.9834    8.7504 N.ar    1  UNL1       -0.2920
     23 O          17.9479   30.9819    9.3082 O.2     1  UNL1       -0.2670
     24 N          13.3859   42.3742    7.2727 N.pl3   1  UNL1       -0.2825
     25 H          13.0003   43.0553    6.6755 H       1  UNL1        0.1551
     26 C          17.7632   44.2326    6.0947 C.3     1  UNL1        0.0522
     27 C          16.9328   43.3111    6.9129 C.ar    1  UNL1        0.0634
     28 C          17.5329   42.4957    7.8703 C.ar    1  UNL1        0.0296
     29 C          16.7195   41.6455    8.6171 C.ar    1  UNL1        0.0634
     30 C          14.8060   42.4279    7.4647 C.ar    1  UNL1        0.2200
     31 C          17.3193   40.7596    9.6481 C.3     1  UNL1        0.0522
     32 N          15.3780   41.6267    8.4022 N.ar    1  UNL1       -0.2179
     33 N          15.5882   43.2636    6.7276 N.ar    1  UNL1       -0.2179
@<TRIPOS>BOND
     1    26    27    1
     2    27    33   ar
     3    28    29   ar
     4    30    32   ar
     5    30    24    1
     6     2     3   ar
     7     4     7   ar
     8     5     1   ar
     9     6     4    1
    10     8     3    1
    11     8     9    1
    12     9    10    1
    13    10    11    1
    14    11    14    1
    15    12    14    1
    16    12     8    1
    17    13    16    1
    18    17    22   ar
    19    18    19   ar
    20    20    16   ar
    21    21    22    1
    22    31    29    1
    23    24     1    1
    24    14    13   am
    25    22    18   ar
    26    27    28   ar
    27    29    32   ar
    28    30    33   ar
    29     1     2   ar
    30     3     7   ar
    31     4     5   ar
    32    13    15    2
    33    16    17   ar
    34    18    23    2
    35    19    20   ar
    36    24    25    1
@<TRIPOS>MOLECULE
MolPort-020-292-519 MCULE-7945916672 PubChem-110264987
 33 36 0 0 0
SMALL
GASTEIGER

@<TRIPOS>ATOM
      1 C          14.1699   39.7943    9.5640 C.ar    1  UNL1        0.0528
      2 C          13.0759   40.6541    9.6880 C.ar    1  UNL1        0.0294
      3 C          11.8328   40.1440   10.0710 C.ar    1  UNL1        0.0611
      4 C          12.7413   37.9531   10.2077 C.ar    1  UNL1        0.0602
      5 C          13.9971   38.4292    9.8276 C.ar    1  UNL1        0.0294
      6 C          12.5499   36.5067   10.4888 C.3     1  UNL1        0.0521
      7 N          11.6934   38.8119   10.3208 N.ar    1  UNL1       -0.2538
      8 C          10.6679   41.0685   10.1998 C.3     1  UNL1        0.0602
      9 C          10.1030   41.0314   11.6207 C.3     1  UNL1        0.0094
     10 C           8.9152   41.9830   11.7438 C.3     1  UNL1        0.0220
     11 C           7.8380   41.6111   10.7288 C.3     1  UNL1        0.0937
     12 C           9.5827   40.7094    9.1855 C.3     1  UNL1        0.0996
     13 C           7.9945   42.4614    8.3415 C.2     1  UNL1        0.2505
     14 N           8.4195   41.5692    9.3885 N.am    1  UNL1       -0.2757
     15 O           8.7983   42.7365    7.4082 O.2     1  UNL1       -0.2699
     16 C           6.6407   43.0639    8.3130 C.ar    1  UNL1        0.0710
     17 C           5.5689   42.4066    8.9315 C.ar    1  UNL1        0.0829
     18 C           4.0824   44.1656    8.3511 C.ar    1  UNL1        0.2610
     19 C           5.1231   44.8611    7.7337 C.ar    1  UNL1        0.0609
     20 C           6.4027   44.3083    7.7202 C.ar    1  UNL1        0.0109
     21 C           3.2538   42.2168    9.5934 C.3     1  UNL1        0.1336
     22 N           4.3231   42.9548    8.9391 N.ar    1  UNL1       -0.2920
     23 O           2.9261   44.6679    8.3602 O.2     1  UNL1       -0.2670
     24 N          15.4359   40.3417    9.1695 N.pl3   1  UNL1       -0.2825
     25 H          16.2359   39.8637    9.4870 H       1  UNL1        0.1551
     26 C          13.9299   43.5136    5.7529 C.3     1  UNL1        0.0522
     27 C          14.9629   43.0519    6.7162 C.ar    1  UNL1        0.0634
     28 C          16.1621   43.7504    6.8409 C.ar    1  UNL1        0.0296
     29 C          17.1050   43.2854    7.7555 C.ar    1  UNL1        0.0634
     30 C          15.6686   41.5060    8.3654 C.ar    1  UNL1        0.2200
     31 C          18.3969   44.0011    7.9194 C.3     1  UNL1        0.0522
     32 N          16.8432   42.1776    8.4974 N.ar    1  UNL1       -0.2179
     33 N          14.7380   41.9486    7.4757 N.ar    1  UNL1       -0.2179
@<TRIPOS>BOND
     1    26    27    1
     2    27    33   ar
     3    28    29   ar
     4    30    32   ar
     5    30    24    1
     6     2     3   ar
     7     4     7   ar
     8     5     1   ar
     9     6     4    1
    10     8     3    1
    11     8     9    1
    12     9    10    1
    13    10    11    1
    14    11    14    1
    15    12    14    1
    16    12     8    1
    17    13    16    1
    18    17    22   ar
    19    18    19   ar
    20    20    16   ar
    21    21    22    1
    22    31    29    1
    23    24     1    1
    24    14    13   am
    25    22    18   ar
    26    27    28   ar
    27    29    32   ar
    28    30    33   ar
    29     1     2   ar
    30     3     7   ar
    31     4     5   ar
    32    13    15    2
    33    16    17   ar
    34    18    23    2
    35    19    20   ar
    36    24    25    1
@<TRIPOS>MOLECULE
MolPort-020-292-519 MCULE-7945916672 PubChem-110264987
 33 36 0 0 0
SMALL
GASTEIGER

@<TRIPOS>ATOM
      1 C          12.1020   41.2069    8.3550 C.ar    1  UNL1        0.0528
      2 C          12.4783   39.8618    8.3294 C.ar    1  UNL1        0.0294
      3 C          11.9651   38.9798    9.2839 C.ar    1  UNL1        0.0611
      4 C          10.7191   40.7391   10.2822 C.ar    1  UNL1        0.0602
      5 C          11.2123   41.6470    9.3437 C.ar    1  UNL1        0.0294
      6 C           9.7753   41.1981   11.3340 C.3     1  UNL1        0.0521
      7 N          11.1017   39.4354   10.2344 N.ar    1  UNL1       -0.2538
      8 C          12.3730   37.5443    9.2515 C.3     1  UNL1        0.0602
      9 C          11.7138   36.7693   10.3935 C.3     1  UNL1        0.0094
     10 C          12.1332   35.3017   10.3495 C.3     1  UNL1        0.0220
     11 C          13.6528   35.1880   10.4316 C.3     1  UNL1        0.0937
     12 C          13.8938   37.4162    9.3290 C.3     1  UNL1        0.0996
     13 C          15.0598   35.4287    8.3318 C.2     1  UNL1        0.2505
     14 N          14.2637   36.0043    9.3844 N.am    1  UNL1       -0.2757
     15 O          15.1511   36.0384    7.2305 O.2     1  UNL1       -0.2699
     16 C          15.7863   34.1475    8.4962 C.ar    1  UNL1        0.0710
     17 C          17.1398   34.1518    8.8584 C.ar    1  UNL1        0.0829
     18 C          17.1989   31.7776    8.8817 C.ar    1  UNL1        0.2610
     19 C          15.8485   31.7260    8.5330 C.ar    1  UNL1        0.0609
     20 C          15.1441   32.9140    8.3448 C.ar    1  UNL1        0.0109
     21 C          19.2238   33.0619    9.4090 C.3     1  UNL1        0.1336
     22 N          17.8189   32.9861    9.0396 N.ar    1  UNL1       -0.2920
     23 O          17.8333   30.7012    9.0496 O.2     1  UNL1       -0.2670
     24 N          12.6422   42.0929    7.3645 N.pl3   1  UNL1       -0.2825
     25 H          12.0254   42.3796    6.6527 H       1  UNL1        0.1551
     26 C          17.3668   41.8355    8.6348 C.3     1  UNL1        0.0522
     27 C          16.2669   42.5049    7.8931 C.ar    1  UNL1        0.0634
     28 C          16.5316   43.6369    7.1249 C.ar    1  UNL1        0.0296
     29 C          15.4730   44.2354    6.4443 C.ar    1  UNL1        0.0634
     30 C          13.9784   42.6084    7.2931 C.ar    1  UNL1        0.2200
     31 C          15.7122   45.4443    5.6141 C.3     1  UNL1        0.0522
     32 N          14.2222   43.7136    6.5400 N.ar    1  UNL1       -0.2179
     33 N          15.0028   42.0131    7.9636 N.ar    1  UNL1       -0.2179
@<TRIPOS>BOND
     1    26    27    1
     2    27    33   ar
     3    28    29   ar
     4    30    32   ar
     5    30    24    1
     6     2     3   ar
     7     4     7   ar
     8     5     1   ar
     9     6     4    1
    10     8     3    1
    11     8     9    1
    12     9    10    1
    13    10    11    1
    14    11    14    1
    15    12    14    1
    16    12     8    1
    17    13    16    1
    18    17    22   ar
    19    18    19   ar
    20    20    16   ar
    21    21    22    1
    22    31    29    1
    23    24     1    1
    24    14    13   am
    25    22    18   ar
    26    27    28   ar
    27    29    32   ar
    28    30    33   ar
    29     1     2   ar
    30     3     7   ar
    31     4     5   ar
    32    13    15    2
    33    16    17   ar
    34    18    23    2
    35    19    20   ar
    36    24    25    1
@<TRIPOS>MOLECULE
MolPort-020-292-519 MCULE-7945916672 PubChem-110264987
 33 36 0 0 0
SMALL
GASTEIGER

@<TRIPOS>ATOM
      1 C          14.1860   39.7387    9.5816 C.ar    1  UNL1        0.0528
      2 C          13.0959   40.6040    9.7015 C.ar    1  UNL1        0.0294
      3 C          11.8453   40.0978   10.0648 C.ar    1  UNL1        0.0611
      4 C          12.7387   37.9000   10.1897 C.ar    1  UNL1        0.0602
      5 C          14.0017   38.3721    9.8291 C.ar    1  UNL1        0.0294
      6 C          12.5351   36.4520   10.4537 C.3     1  UNL1        0.0521
      7 N          11.6948   38.7641   10.2993 N.ar    1  UNL1       -0.2538
      8 C          10.6846   41.0282   10.1893 C.3     1  UNL1        0.0602
      9 C          10.1370   41.0209   11.6174 C.3     1  UNL1        0.0094
     10 C           8.9535   41.9784   11.7361 C.3     1  UNL1        0.0220
     11 C           7.8629   41.5897   10.7419 C.3     1  UNL1        0.0937
     12 C           9.5860   40.6524    9.1956 C.3     1  UNL1        0.0996
     13 C           7.9925   42.3921    8.3364 C.2     1  UNL1        0.2505
     14 N           8.4279   41.5195    9.3957 N.am    1  UNL1       -0.2757
     15 O           8.7857   42.6463    7.3882 O.2     1  UNL1       -0.2699
     16 C           6.6403   42.9980    8.3125 C.ar    1  UNL1        0.0710
     17 C           5.5732   42.3538    8.9525 C.ar    1  UNL1        0.0829
     18 C           4.0856   44.1077    8.3597 C.ar    1  UNL1        0.2610
     19 C           5.1216   44.7903    7.7205 C.ar    1  UNL1        0.0609
     20 C           6.3994   44.2336    7.7025 C.ar    1  UNL1        0.0109
     21 C           3.2646   42.1813    9.6413 C.3     1  UNL1        0.1336
     22 N           4.3290   42.9057    8.9643 N.ar    1  UNL1       -0.2920
     23 O           2.9308   44.6135    8.3728 O.2     1  UNL1       -0.2670
     24 N          15.4598   40.2822    9.2075 N.pl3   1  UNL1       -0.2825
     25 H          16.2531   39.8013    9.5372 H       1  UNL1        0.1551
     26 C          18.3968   43.9706    7.8765 C.3     1  UNL1        0.0522
     27 C          17.1108   43.2372    7.7482 C.ar    1  UNL1        0.0634
     28 C          16.1424   43.6794    6.8491 C.ar    1  UNL1        0.0296
     29 C          14.9499   42.9641    6.7583 C.ar    1  UNL1        0.0634
     30 C          15.7091   41.4462    8.4081 C.ar    1  UNL1        0.2200
     31 C          13.8911   43.4019    5.8122 C.3     1  UNL1        0.0522
     32 N          14.7554   41.8664    7.5351 N.ar    1  UNL1       -0.2179
     33 N          16.8791   42.1352    8.5075 N.ar    1  UNL1       -0.2179
@<TRIPOS>BOND
     1    26    27    1
     2    27    33   ar
     3    28    29   ar
     4    30    32   ar
     5    30    24    1
     6     2     3   ar
     7     4     7   ar
     8     5     1   ar
     9     6     4    1
    10     8     3    1
    11     8     9    1
    12     9    10    1
    13    10    11    1
    14    11    14    1
    15    12    14    1
    16    12     8    1
    17    13    16    1
    18    17    22   ar
    19    18    19   ar
    20    20    16   ar
    21    21    22    1
    22    31    29    1
    23    24     1    1
    24    14    13   am
    25    22    18   ar
    26    27    28   ar
    27    29    32   ar
    28    30    33   ar
    29     1     2   ar
    30     3     7   ar
    31     4     5   ar
    32    13    15    2
    33    16    17   ar
    34    18    23    2
    35    19    20   ar
    36    24    25    1
@<TRIPOS>MOLECULE
MolPort-020-292-519 MCULE-7945916672 PubChem-110264987
 33 36 0 0 0
SMALL
GASTEIGER

@<TRIPOS>ATOM
      1 C          16.2261   41.8718    8.3005 C.ar    1  UNL1        0.0528
      2 C          14.9225   41.3786    8.2059 C.ar    1  UNL1        0.0294
      3 C          13.9849   42.0446    7.4124 C.ar    1  UNL1        0.0611
      4 C          15.6073   43.6724    6.8104 C.ar    1  UNL1        0.0602
      5 C          16.5688   43.0318    7.5935 C.ar    1  UNL1        0.0294
      6 C          15.9629   44.9032    6.0577 C.3     1  UNL1        0.0521
      7 N          14.3458   43.1709    6.7359 N.ar    1  UNL1       -0.2538
      8 C          12.5934   41.5127    7.3175 C.3     1  UNL1        0.0602
      9 C          12.1552   41.4032    5.8561 C.3     1  UNL1        0.0094
     10 C          10.7330   40.8543    5.7690 C.3     1  UNL1        0.0220
     11 C           9.7762   41.7510    6.5496 C.3     1  UNL1        0.0937
     12 C          11.6249   42.3998    8.0989 C.3     1  UNL1        0.0996
     13 C           9.5090   41.4454    9.0561 C.2     1  UNL1        0.2505
     14 N          10.2604   41.9109    7.9195 N.am    1  UNL1       -0.2757
     15 O          10.1246   41.1538   10.1186 O.2     1  UNL1       -0.2699
     16 C           8.0340   41.3041    9.0286 C.ar    1  UNL1        0.0710
     17 C           7.2833   41.5760   10.1800 C.ar    1  UNL1        0.0829
     18 C           5.2545   41.1181    9.0333 C.ar    1  UNL1        0.2610
     19 C           5.9612   40.8497    7.8600 C.ar    1  UNL1        0.0609
     20 C           7.3516   40.9477    7.8607 C.ar    1  UNL1        0.0109
     21 C           5.2078   41.7674   11.4005 C.3     1  UNL1        0.1336
     22 N           5.9258   41.4772   10.1691 N.ar    1  UNL1       -0.2920
     23 O           3.9971   41.0270    9.0294 O.2     1  UNL1       -0.2670
     24 N          17.1707   41.1706    9.1213 N.pl3   1  UNL1       -0.2825
     25 H          18.0763   41.5538    9.1690 H       1  UNL1        0.1551
     26 C          14.2394   38.3830   11.8852 C.3     1  UNL1        0.0522
     27 C          15.5478   38.6101   11.2183 C.ar    1  UNL1        0.0634
     28 C          16.5611   37.6600   11.3290 C.ar    1  UNL1        0.0296
     29 C          17.7734   37.9101   10.6888 C.ar    1  UNL1        0.0634
     30 C          16.9459   39.9749    9.8803 C.ar    1  UNL1        0.2200
     31 C          18.8801   36.9229   10.7817 C.3     1  UNL1        0.0522
     32 N          17.9435   39.0567    9.9799 N.ar    1  UNL1       -0.2179
     33 N          15.7561   39.7441   10.5005 N.ar    1  UNL1       -0.2179
@<TRIPOS>BOND
     1    26    27    1
     2    27    33   ar
     3    28    29   ar
     4    30    32   ar
     5    30    24    1
     6     2     3   ar
     7     4     7   ar
     8     5     1   ar
     9     6     4    1
    10     8     3    1
    11     8     9    1
    12     9    10    1
    13    10    11    1
    14    11    14    1
    15    12    14    1
    16    12     8    1
    17    13    16    1
    18    17    22   ar
    19    18    19   ar
    20    20    16   ar
    21    21    22    1
    22    31    29    1
    23    24     1    1
    24    14    13   am
    25    22    18   ar
    26    27    28   ar
    27    29    32   ar
    28    30    33   ar
    29     1     2   ar
    30     3     7   ar
    31     4     5   ar
    32    13    15    2
    33    16    17   ar
    34    18    23    2
    35    19    20   ar
    36    24    25    1
@<TRIPOS>MOLECULE
MolPort-020-292-519 MCULE-7945916672 PubChem-110264987
 33 36 0 0 0
SMALL
GASTEIGER

@<TRIPOS>ATOM
      1 C          16.2561   41.8739    8.3132 C.ar    1  UNL1        0.0528
      2 C          14.9556   41.3704    8.2320 C.ar    1  UNL1        0.0294
      3 C          14.0021   42.0342    7.4558 C.ar    1  UNL1        0.0611
      4 C          15.6027   43.6802    6.8449 C.ar    1  UNL1        0.0602
      5 C          16.5798   43.0419    7.6106 C.ar    1  UNL1        0.0294
      6 C          15.9380   44.9195    6.0970 C.3     1  UNL1        0.0521
      7 N          14.3446   43.1686    6.7832 N.ar    1  UNL1       -0.2538
      8 C          12.6139   41.4913    7.3752 C.3     1  UNL1        0.0602
      9 C          12.1946   41.2943    5.9175 C.3     1  UNL1        0.0094
     10 C          10.7757   40.7347    5.8452 C.3     1  UNL1        0.0220
     11 C           9.8057   41.6713    6.5600 C.3     1  UNL1        0.0937
     12 C          11.6323   42.4183    8.0911 C.3     1  UNL1        0.0996
     13 C           9.5082   41.5120    9.0765 C.2     1  UNL1        0.2505
     14 N          10.2720   41.9134    7.9239 N.am    1  UNL1       -0.2757
     15 O          10.1114   41.2859   10.1619 O.2     1  UNL1       -0.2699
     16 C           8.0342   41.3625    9.0392 C.ar    1  UNL1        0.0710
     17 C           7.2824   41.5445   10.2076 C.ar    1  UNL1        0.0829
     18 C           5.2561   41.1568    9.0310 C.ar    1  UNL1        0.2610
     19 C           5.9638   40.9796    7.8412 C.ar    1  UNL1        0.0609
     20 C           7.3535   41.0872    7.8486 C.ar    1  UNL1        0.0109
     21 C           5.2066   41.6317   11.4393 C.3     1  UNL1        0.1336
     22 N           5.9257   41.4371   10.1898 N.ar    1  UNL1       -0.2920
     23 O           3.9994   41.0573    9.0208 O.2     1  UNL1       -0.2670
     24 N          17.2173   41.1746    9.1163 N.pl3   1  UNL1       -0.2825
     25 H          18.1219   41.5617    9.1500 H       1  UNL1        0.1551
     26 C          18.8335   36.8444   10.7408 C.3     1  UNL1        0.0522
     27 C          17.7693   37.8793   10.6732 C.ar    1  UNL1        0.0634
     28 C          16.5659   37.6874   11.3488 C.ar    1  UNL1        0.0296
     29 C          15.5933   38.6815   11.2606 C.ar    1  UNL1        0.0634
     30 C          17.0104   39.9759    9.8757 C.ar    1  UNL1        0.2200
     31 C          14.2959   38.5162   11.9659 C.3     1  UNL1        0.0522
     32 N          15.8313   39.8018   10.5297 N.ar    1  UNL1       -0.2179
     33 N          17.9698   39.0131    9.9528 N.ar    1  UNL1       -0.2179
@<TRIPOS>BOND
     1    26    27    1
     2    27    33   ar
     3    28    29   ar
     4    30    32   ar
     5    30    24    1
     6     2     3   ar
     7     4     7   ar
     8     5     1   ar
     9     6     4    1
    10     8     3    1
    11     8     9    1
    12     9    10    1
    13    10    11    1
    14    11    14    1
    15    12    14    1
    16    12     8    1
    17    13    16    1
    18    17    22   ar
    19    18    19   ar
    20    20    16   ar
    21    21    22    1
    22    31    29    1
    23    24     1    1
    24    14    13   am
    25    22    18   ar
    26    27    28   ar
    27    29    32   ar
    28    30    33   ar
    29     1     2   ar
    30     3     7   ar
    31     4     5   ar
    32    13    15    2
    33    16    17   ar
    34    18    23    2
    35    19    20   ar
    36    24    25    1
@<TRIPOS>MOLECULE
MolPort-020-292-519 MCULE-7945916672 PubChem-110264987
 33 36 0 0 0
SMALL
GASTEIGER

@<TRIPOS>ATOM
      1 C           7.0858   42.2735    9.6548 C.ar    1  UNL1        0.0528
      2 C           8.4310   41.9139    9.7663 C.ar    1  UNL1        0.0294
      3 C           9.2695   42.0110    8.6529 C.ar    1  UNL1        0.0611
      4 C           7.4666   42.8111    7.3286 C.ar    1  UNL1        0.0602
      5 C           6.6015   42.7267    8.4208 C.ar    1  UNL1        0.0294
      6 C           6.9607   43.2907    6.0164 C.3     1  UNL1        0.0521
      7 N           8.7715   42.4548    7.4648 N.ar    1  UNL1       -0.2538
      8 C          10.7054   41.6233    8.7791 C.3     1  UNL1        0.0602
      9 C          11.3759   41.5788    7.4051 C.3     1  UNL1        0.0094
     10 C          12.8448   41.1859    7.5446 C.3     1  UNL1        0.0220
     11 C          12.9619   39.8336    8.2422 C.3     1  UNL1        0.0937
     12 C          10.8372   40.2718    9.4801 C.3     1  UNL1        0.0996
     13 C          12.9105   39.7037   10.7774 C.2     1  UNL1        0.2505
     14 N          12.2419   39.8730    9.5136 N.am    1  UNL1       -0.2757
     15 O          12.3973   40.2094   11.8137 O.2     1  UNL1       -0.2699
     16 C          14.1783   38.9477   10.9097 C.ar    1  UNL1        0.0710
     17 C          15.3877   39.5346   10.5148 C.ar    1  UNL1        0.0829
     18 C          16.6057   37.6091   11.1854 C.ar    1  UNL1        0.2610
     19 C          15.4264   36.9906   11.6033 C.ar    1  UNL1        0.0609
     20 C          14.2142   37.6652   11.4673 C.ar    1  UNL1        0.0109
     21 C          17.7845   39.5321   10.2160 C.3     1  UNL1        0.1336
     22 N          16.5662   38.8673   10.6516 N.ar    1  UNL1       -0.2920
     23 O          17.7001   36.9954   11.3086 O.2     1  UNL1       -0.2670
     24 N           6.2449   42.1652   10.8120 N.pl3   1  UNL1       -0.2825
     25 H           6.6917   42.2488   11.6853 H       1  UNL1        0.1551
     26 C           1.9576   42.4237   13.1688 C.3     1  UNL1        0.0522
     27 C           2.7436   42.0637   11.9601 C.ar    1  UNL1        0.0634
     28 C           2.1043   41.5145   10.8505 C.ar    1  UNL1        0.0296
     29 C           2.8767   41.1906    9.7367 C.ar    1  UNL1        0.0634
     30 C           4.8276   41.9490   10.8414 C.ar    1  UNL1        0.2200
     31 C           2.2343   40.6028    8.5327 C.3     1  UNL1        0.0522
     32 N           4.2171   41.4122    9.7518 N.ar    1  UNL1       -0.2179
     33 N           4.0858   42.2703   11.9368 N.ar    1  UNL1       -0.2179
@<TRIPOS>BOND
     1    26    27    1
     2    27    33   ar
     3    28    29   ar
     4    30    32   ar
     5    30    24    1
     6     2     3   ar
     7     4     7   ar
     8     5     1   ar
     9     6     4    1
    10     8     3    1
    11     8     9    1
    12     9    10    1
    13    10    11    1
    14    11    14    1
    15    12    14    1
    16    12     8    1
    17    13    16    1
    18    17    22   ar
    19    18    19   ar
    20    20    16   ar
    21    21    22    1
    22    31    29    1
    23    24     1    1
    24    14    13   am
    25    22    18   ar
    26    27    28   ar
    27    29    32   ar
    28    30    33   ar
    29     1     2   ar
    30     3     7   ar
    31     4     5   ar
    32    13    15    2
    33    16    17   ar
    34    18    23    2
    35    19    20   ar
    36    24    25    1
@<TRIPOS>MOLECULE
MolPort-020-292-519 MCULE-7945916672 PubChem-110264987
 33 36 0 0 0
SMALL
GASTEIGER

@<TRIPOS>ATOM
      1 C          16.8114   40.1963    9.8047 C.ar    1  UNL1        0.0528
      2 C          15.4293   40.0799    9.6382 C.ar    1  UNL1        0.0294
      3 C          14.7541   38.9872   10.1882 C.ar    1  UNL1        0.0611
      4 C          16.7912   38.1299   11.0597 C.ar    1  UNL1        0.0602
      5 C          17.4968   39.2085   10.5239 C.ar    1  UNL1        0.0294
      6 C          17.5108   37.0781   11.8236 C.3     1  UNL1        0.0521
      7 N          15.4461   38.0411   10.8828 N.ar    1  UNL1       -0.2538
      8 C          13.2774   38.8686   10.0048 C.3     1  UNL1        0.0602
      9 C          12.8134   37.4354   10.2696 C.3     1  UNL1        0.0094
     10 C          11.3018   37.3249   10.0840 C.3     1  UNL1        0.0220
     11 C          10.9132   37.7623    8.6745 C.3     1  UNL1        0.0937
     12 C          12.8740   39.3077    8.5977 C.3     1  UNL1        0.0996
     13 C          10.5790   40.2253    8.1559 C.2     1  UNL1        0.2505
     14 N          11.4401   39.1003    8.4128 N.am    1  UNL1       -0.2757
     15 O          10.9965   41.3875    8.4164 O.2     1  UNL1       -0.2699
     16 C           9.2195   40.0705    7.5864 C.ar    1  UNL1        0.0710
     17 C           8.1242   40.6781    8.2145 C.ar    1  UNL1        0.0829
     18 C           6.6456   39.8724    6.5397 C.ar    1  UNL1        0.2610
     19 C           7.7091   39.2611    5.8740 C.ar    1  UNL1        0.0609
     20 C           8.9962   39.3657    6.3989 C.ar    1  UNL1        0.0109
     21 C           5.7777   41.2196    8.3996 C.3     1  UNL1        0.1336
     22 N           6.8712   40.5697    7.6940 N.ar    1  UNL1       -0.2920
     23 O           5.4826   39.7744    6.0629 O.2     1  UNL1       -0.2670
     24 N          17.4822   41.3270    9.2308 N.pl3   1  UNL1       -0.2825
     25 H          18.3703   41.5401    9.5983 H       1  UNL1        0.1551
     26 C          18.3754   44.4369    5.5521 C.3     1  UNL1        0.0522
     27 C          17.4127   43.6878    6.4008 C.ar    1  UNL1        0.0634
     28 C          16.0428   43.8147    6.1798 C.ar    1  UNL1        0.0296
     29 C          15.1727   43.0955    6.9970 C.ar    1  UNL1        0.0634
     30 C          17.0062   42.1823    8.1828 C.ar    1  UNL1        0.2200
     31 C          13.7045   43.2024    6.7949 C.3     1  UNL1        0.0522
     32 N          15.6670   42.2966    7.9786 N.ar    1  UNL1       -0.2179
     33 N          17.8681   42.8790    7.3922 N.ar    1  UNL1       -0.2179
@<TRIPOS>BOND
     1    26    27    1
     2    27    33   ar
     3    28    29   ar
     4    30    32   ar
     5    30    24    1
     6     2     3   ar
     7     4     7   ar
     8     5     1   ar
     9     6     4    1
    10     8     3    1
    11     8     9    1
    12     9    10    1
    13    10    11    1
    14    11    14    1
    15    12    14    1
    16    12     8    1
    17    13    16    1
    18    17    22   ar
    19    18    19   ar
    20    20    16   ar
    21    21    22    1
    22    31    29    1
    23    24     1    1
    24    14    13   am
    25    22    18   ar
    26    27    28   ar
    27    29    32   ar
    28    30    33   ar
    29     1     2   ar
    30     3     7   ar
    31     4     5   ar
    32    13    15    2
    33    16    17   ar
    34    18    23    2
    35    19    20   ar
    36    24    25    1
@<TRIPOS>MOLECULE
MolPort-020-292-519 MCULE-7945916672 PubChem-110264987
 33 36 0 0 0
SMALL
GASTEIGER

@<TRIPOS>ATOM
      1 C          14.2099   39.3728    9.2803 C.ar    1  UNL1        0.0528
      2 C          12.8887   39.7679    9.0575 C.ar    1  UNL1        0.0294
      3 C          11.8783   38.8050    8.9923 C.ar    1  UNL1        0.0611
      4 C          13.4635   37.0746    9.3632 C.ar    1  UNL1        0.0602
      5 C          14.4969   38.0102    9.4344 C.ar    1  UNL1        0.0294
      6 C          13.7598   35.6277    9.5254 C.3     1  UNL1        0.0521
      7 N          12.1863   37.4865    9.1453 N.ar    1  UNL1       -0.2538
      8 C          10.4691   39.2345    8.7521 C.3     1  UNL1        0.0602
      9 C          10.0014   38.8008    7.3619 C.3     1  UNL1        0.0094
     10 C           8.5581   39.2404    7.1272 C.3     1  UNL1        0.0220
     11 C           8.4386   40.7536    7.2851 C.3     1  UNL1        0.0937
     12 C          10.3345   40.7484    8.9112 C.3     1  UNL1        0.0996
     13 C           8.1449   41.7706    9.5930 C.2     1  UNL1        0.2505
     14 N           8.9699   41.1551    8.5862 N.am    1  UNL1       -0.2757
     15 O           8.4724   41.6559   10.8064 O.2     1  UNL1       -0.2699
     16 C           6.9264   42.5442    9.2567 C.ar    1  UNL1        0.0710
     17 C           5.6653   42.0613    9.6306 C.ar    1  UNL1        0.0829
     18 C           4.5985   43.9737    8.7112 C.ar    1  UNL1        0.2610
     19 C           5.8345   44.4987    8.3311 C.ar    1  UNL1        0.0609
     20 C           6.9974   43.7822    8.6093 C.ar    1  UNL1        0.0109
     21 C           3.2581   42.2069    9.7645 C.3     1  UNL1        0.1336
     22 N           4.5357   42.7685    9.3541 N.ar    1  UNL1       -0.2920
     23 O           3.5487   44.6238    8.4567 O.2     1  UNL1       -0.2670
     24 N          15.2294   40.3800    9.3434 N.pl3   1  UNL1       -0.2825
     25 H          15.8613   40.3146   10.0955 H       1  UNL1        0.1551
     26 C          13.6158   43.2309    5.7006 C.3     1  UNL1        0.0522
     27 C          14.6751   42.8622    6.6753 C.ar    1  UNL1        0.0634
     28 C          15.8706   43.5771    6.7097 C.ar    1  UNL1        0.0296
     29 C          16.8388   43.2003    7.6385 C.ar    1  UNL1        0.0634
     30 C          15.4330   41.4711    8.4355 C.ar    1  UNL1        0.2200
     31 C          18.1277   43.9363    7.7082 C.3     1  UNL1        0.0522
     32 N          16.6043   42.1597    8.4801 N.ar    1  UNL1       -0.2179
     33 N          14.4779   41.8280    7.5333 N.ar    1  UNL1       -0.2179
@<TRIPOS>BOND
     1    26    27    1
     2    27    33   ar
     3    28    29   ar
     4    30    32   ar
     5    30    24    1
     6     2     3   ar
     7     4     7   ar
     8     5     1   ar
     9     6     4    1
    10     8     3    1
    11     8     9    1
    12     9    10    1
    13    10    11    1
    14    11    14    1
    15    12    14    1
    16    12     8    1
    17    13    16    1
    18    17    22   ar
    19    18    19   ar
    20    20    16   ar
    21    21    22    1
    22    31    29    1
    23    24     1    1
    24    14    13   am
    25    22    18   ar
    26    27    28   ar
    27    29    32   ar
    28    30    33   ar
    29     1     2   ar
    30     3     7   ar
    31     4     5   ar
    32    13    15    2
    33    16    17   ar
    34    18    23    2
    35    19    20   ar
    36    24    25    1
@<TRIPOS>MOLECULE
MolPort-020-292-519 MCULE-7945916672 PubChem-110264987
 33 36 0 0 0
SMALL
GASTEIGER

@<TRIPOS>ATOM
      1 C          14.1503   39.2285    9.3553 C.ar    1  UNL1        0.0528
      2 C          12.8402   39.6458    9.1087 C.ar    1  UNL1        0.0294
      3 C          11.8122   38.7017    9.0436 C.ar    1  UNL1        0.0611
      4 C          13.3581   36.9467    9.4612 C.ar    1  UNL1        0.0602
      5 C          14.4086   37.8630    9.5330 C.ar    1  UNL1        0.0294
      6 C          13.6238   35.4968    9.6484 C.3     1  UNL1        0.0521
      7 N          12.0922   37.3800    9.2199 N.ar    1  UNL1       -0.2538
      8 C          10.4150   39.1548    8.7779 C.3     1  UNL1        0.0602
      9 C           9.9791   38.7627    7.3652 C.3     1  UNL1        0.0094
     10 C           8.5477   39.2262    7.1044 C.3     1  UNL1        0.0220
     11 C           8.4421   40.7363    7.2982 C.3     1  UNL1        0.0937
     12 C          10.2942   40.6658    8.9725 C.3     1  UNL1        0.0996
     13 C           8.0996   41.6975    9.6232 C.2     1  UNL1        0.2505
     14 N           8.9436   41.0977    8.6227 N.am    1  UNL1       -0.2757
     15 O           8.3936   41.5478   10.8415 O.2     1  UNL1       -0.2699
     16 C           6.8997   42.4947    9.2754 C.ar    1  UNL1        0.0710
     17 C           5.6214   41.9956    9.5590 C.ar    1  UNL1        0.0829
     18 C           4.6025   43.9635    8.7048 C.ar    1  UNL1        0.2610
     19 C           5.8560   44.5050    8.4162 C.ar    1  UNL1        0.0609
     20 C           7.0033   43.7685    8.7069 C.ar    1  UNL1        0.0109
     21 C           3.2107   42.1428    9.5856 C.3     1  UNL1        0.1336
     22 N           4.5073   42.7226    9.2711 N.ar    1  UNL1       -0.2920
     23 O           3.5669   44.6318    8.4392 O.2     1  UNL1       -0.2670
     24 N          15.1885   40.2165    9.4178 N.pl3   1  UNL1       -0.2825
     25 H          15.8377   40.1214   10.1517 H       1  UNL1        0.1551
     26 C          17.9813   43.8939    7.7809 C.3     1  UNL1        0.0522
     27 C          16.7196   43.1109    7.7248 C.ar    1  UNL1        0.0634
     28 C          15.7257   43.4542    6.8105 C.ar    1  UNL1        0.0296
     29 C          14.5573   42.6951    6.7892 C.ar    1  UNL1        0.0634
     30 C          15.3880   41.3270    8.5328 C.ar    1  UNL1        0.2200
     31 C          13.4726   43.0277    5.8296 C.3     1  UNL1        0.0522
     32 N          14.4099   41.6509    7.6459 N.ar    1  UNL1       -0.2179
     33 N          16.5350   42.0598    8.5650 N.ar    1  UNL1       -0.2179
@<TRIPOS>BOND
     1    26    27    1
     2    27    33   ar
     3    28    29   ar
     4    30    32   ar
     5    30    24    1
     6     2     3   ar
     7     4     7   ar
     8     5     1   ar
     9     6     4    1
    10     8     3    1
    11     8     9    1
    12     9    10    1
    13    10    11    1
    14    11    14    1
    15    12    14    1
    16    12     8    1
    17    13    16    1
    18    17    22   ar
    19    18    19   ar
    20    20    16   ar
    21    21    22    1
    22    31    29    1
    23    24     1    1
    24    14    13   am
    25    22    18   ar
    26    27    28   ar
    27    29    32   ar
    28    30    33   ar
    29     1     2   ar
    30     3     7   ar
    31     4     5   ar
    32    13    15    2
    33    16    17   ar
    34    18    23    2
    35    19    20   ar
    36    24    25    1
