@<TRIPOS>MOLECULE
MolPort-005-112-484 CSSS00159534780 MCULE-5873997542
 37 42 0 0 0
SMALL
GASTEIGER

@<TRIPOS>ATOM
      1 C           8.2306   40.4604    7.9301 C.3     1  UNL1        0.2121
      2 C           6.0944   42.2862    6.8014 C.3     1  UNL1        0.1319
      3 C           5.4347   43.4128    6.0257 C.3     1  UNL1        0.0293
      4 C           6.3557   44.6190    6.1530 C.3     1  UNL1        0.0237
      5 C           7.7035   44.0822    6.5960 C.3     1  UNL1        0.0939
      6 C           8.5143   41.8645    7.4979 C.2     1  UNL1        0.2508
      7 N           7.4613   42.7216    7.0321 N.am    1  UNL1       -0.2727
      8 O           9.6991   42.2912    7.5471 O.2     1  UNL1       -0.2727
      9 C           5.3774   42.0748    8.0982 C.ar    1  UNL1        0.1352
     10 C           4.8915   42.2047   10.1405 C.ar    1  UNL1        0.0755
     11 C           3.9926   41.3875    9.5262 C.ar    1  UNL1        0.1004
     12 C           2.9413   40.7905   10.2172 C.ar    1  UNL1        0.0502
     13 C           2.8385   41.0571   11.5956 C.ar    1  UNL1        0.1417
     14 C           3.7730   41.9044   12.2328 C.ar    1  UNL1        0.0312
     15 C           4.8204   42.4941   11.5006 C.ar    1  UNL1        0.0208
     16 N           5.7898   42.6563    9.2541 N.ar    1  UNL1       -0.3395
     17 N           4.2773   41.2832    8.2208 N.ar    1  UNL1       -0.2294
     18 F           1.8309   40.5068   12.3132 F       1  UNL1       -0.2041
     19 H           6.5550   43.2575    9.4033 H       1  UNL1        0.1671
     20 C          10.6518   40.3122    8.4594 C.ar    1  UNL1        0.1119
     21 C          11.3998   39.5684    9.3482 C.ar    1  UNL1        0.0907
     22 C          10.5367   38.7417   10.0371 C.ar    1  UNL1        0.1363
     23 N           9.3811   39.9082    8.6263 N.ar    1  UNL1       -0.2387
     24 N           9.2974   38.9804    9.5664 N.ar    1  UNL1       -0.1658
     25 C          13.6555   38.5452    9.9317 C.2     1  UNL1        0.2497
     26 N          12.8116   39.6470    9.5693 N.am    1  UNL1       -0.2779
     27 O          13.1569   37.4103   10.1678 O.2     1  UNL1       -0.2698
     28 H          13.2379   40.5282    9.4641 H       1  UNL1        0.1553
     29 C          15.1119   38.7404   10.0364 C.ar    1  UNL1        0.0569
     30 C          15.6606   40.0456    9.9826 C.ar    1  UNL1        0.0078
     31 C          17.0479   40.2497   10.0879 C.ar    1  UNL1        0.0403
     32 C          17.8516   39.1256   10.2489 C.ar    1  UNL1        0.1764
     33 C          17.3356   37.8718   10.3020 C.ar    1  UNL1        0.1766
     34 C          19.5957   37.6855   10.5240 C.3     1  UNL1        0.4294
     35 C          15.9683   37.6298   10.1981 C.ar    1  UNL1        0.0447
     36 O          18.3591   36.9598   10.4679 O.3     1  UNL1       -0.4346
     37 O          19.2247   39.0638   10.3789 O.3     1  UNL1       -0.4346
@<TRIPOS>BOND
     1     9    16   ar
     2     2     9    1
     3     2     3    1
     4     2     7    1
     5     3     4    1
     6     4     5    1
     7     5     7    1
     8     1     6    1
     9     1    23    1
    10    21    22   ar
    11    21    26    1
    12    25    29    1
    13    30    31   ar
    14    32    33   ar
    15    32    37    1
    16    33    36    1
    17    34    36    1
    18    34    37    1
    19    35    29   ar
    20    11    12   ar
    21    11    17   ar
    22    13    14   ar
    23    13    18    1
    24    15    10   ar
    25     7     6   am
    26    23    20   ar
    27    23    24   ar
    28    26    25   am
    29    16    10   ar
    30     9    17   ar
    31     6     8    2
    32    20    21   ar
    33    22    24   ar
    34    25    27    2
    35    29    30   ar
    36    31    32   ar
    37    33    35   ar
    38    10    11   ar
    39    12    13   ar
    40    14    15   ar
    41    26    28    1
    42    16    19    1
@<TRIPOS>MOLECULE
MolPort-005-112-484 CSSS00159534780 MCULE-5873997542
 37 42 0 0 0
SMALL
GASTEIGER

@<TRIPOS>ATOM
      1 C           9.7257   41.6736    5.0313 C.3     1  UNL1        0.2121
      2 C          11.4950   39.2532    4.6045 C.3     1  UNL1        0.1319
      3 C          12.0356   37.9561    4.0287 C.3     1  UNL1        0.0293
      4 C          10.8245   37.0891    3.7111 C.3     1  UNL1        0.0237
      5 C           9.6285   38.0217    3.6788 C.3     1  UNL1        0.0939
      6 C           9.2262   40.4079    4.4089 C.2     1  UNL1        0.2508
      7 N          10.0773   39.2586    4.2861 N.am    1  UNL1       -0.2727
      8 O           8.0389   40.3608    3.9890 O.2     1  UNL1       -0.2727
      9 C          11.7078   39.2788    6.0858 C.ar    1  UNL1        0.1352
     10 C          11.4160   38.9235    8.1382 C.ar    1  UNL1        0.0755
     11 C          12.5235   39.6991    7.9798 C.ar    1  UNL1        0.1004
     12 C          13.2891   40.1271    9.0613 C.ar    1  UNL1        0.0502
     13 C          12.8719   39.7321   10.3464 C.ar    1  UNL1        0.1417
     14 C          11.7211   38.9281   10.5102 C.ar    1  UNL1        0.0312
     15 C          10.9745   38.5106    9.3925 C.ar    1  UNL1        0.0208
     16 N          10.8721   38.6417    6.9462 N.ar    1  UNL1       -0.3395
     17 N          12.7354   39.9447    6.6795 N.ar    1  UNL1       -0.2294
     18 F          13.5844   40.1157   11.4319 F       1  UNL1       -0.2041
     19 H          10.0697   38.1078    6.7450 H       1  UNL1        0.1671
     20 C           8.0869   41.4079    6.8774 C.ar    1  UNL1        0.1119
     21 C           8.1404   41.5794    8.2451 C.ar    1  UNL1        0.0907
     22 C           9.4105   42.0112    8.5666 C.ar    1  UNL1        0.1363
     23 N           9.3035   41.7496    6.4203 N.ar    1  UNL1       -0.2387
     24 N          10.1024   42.1030    7.4145 N.ar    1  UNL1       -0.1658
     25 C           6.1178   42.2788    9.6218 C.2     1  UNL1        0.2497
     26 N           7.0973   41.3235    9.1910 N.am    1  UNL1       -0.2779
     27 O           6.1806   43.4772    9.2321 O.2     1  UNL1       -0.2698
     28 H           7.0480   40.4192    9.5770 H       1  UNL1        0.1553
     29 C           5.0360   41.8610   10.5304 C.ar    1  UNL1        0.0569
     30 C           5.0722   40.5820   11.1391 C.ar    1  UNL1        0.0078
     31 C           4.0512   40.1705   12.0140 C.ar    1  UNL1        0.0403
     32 C           3.0146   41.0659   12.2569 C.ar    1  UNL1        0.1764
     33 C           2.9712   42.2928   11.6791 C.ar    1  UNL1        0.1766
     34 C           1.1254   42.0997   13.0012 C.3     1  UNL1        0.4294
     35 C           3.9615   42.7341   10.8054 C.ar    1  UNL1        0.0447
     36 O           1.8382   42.9602   12.1010 O.3     1  UNL1       -0.4346
     37 O           1.9113   40.9013   13.0705 O.3     1  UNL1       -0.4346
@<TRIPOS>BOND
     1     9    16   ar
     2     2     9    1
     3     2     3    1
     4     2     7    1
     5     3     4    1
     6     4     5    1
     7     5     7    1
     8     1     6    1
     9     1    23    1
    10    21    22   ar
    11    21    26    1
    12    25    29    1
    13    30    31   ar
    14    32    33   ar
    15    32    37    1
    16    33    36    1
    17    34    36    1
    18    34    37    1
    19    35    29   ar
    20    11    12   ar
    21    11    17   ar
    22    13    14   ar
    23    13    18    1
    24    15    10   ar
    25     7     6   am
    26    23    20   ar
    27    23    24   ar
    28    26    25   am
    29    16    10   ar
    30     9    17   ar
    31     6     8    2
    32    20    21   ar
    33    22    24   ar
    34    25    27    2
    35    29    30   ar
    36    31    32   ar
    37    33    35   ar
    38    10    11   ar
    39    12    13   ar
    40    14    15   ar
    41    26    28    1
    42    16    19    1
@<TRIPOS>MOLECULE
MolPort-005-112-484 CSSS00159534780 MCULE-5873997542
 37 42 0 0 0
SMALL
GASTEIGER

@<TRIPOS>ATOM
      1 C           7.4825   41.1053    6.5066 C.3     1  UNL1        0.2121
      2 C           7.7560   42.6201    9.1145 C.3     1  UNL1        0.1319
      3 C           8.0530   42.9219   10.5729 C.3     1  UNL1        0.0293
      4 C           7.6047   41.7004   11.3644 C.3     1  UNL1        0.0237
      5 C           7.4787   40.5665   10.3647 C.3     1  UNL1        0.0939
      6 C           7.4411   40.4297    7.8410 C.2     1  UNL1        0.2508
      7 N           7.5053   41.1901    9.0568 N.am    1  UNL1       -0.2727
      8 O           7.3486   39.1737    7.8873 O.2     1  UNL1       -0.2727
      9 C           6.5511   43.3899    8.6719 C.ar    1  UNL1        0.1352
     10 C           5.3647   44.8431    7.7209 C.ar    1  UNL1        0.0755
     11 C           4.5561   44.0197    8.4430 C.ar    1  UNL1        0.1004
     12 C           3.1731   44.1799    8.4737 C.ar    1  UNL1        0.0502
     13 C           2.6278   45.2418    7.7278 C.ar    1  UNL1        0.1417
     14 C           3.4681   46.0972    6.9797 C.ar    1  UNL1        0.0312
     15 C           4.8618   45.9016    6.9689 C.ar    1  UNL1        0.0208
     16 N           6.6446   44.4673    7.8503 N.ar    1  UNL1       -0.3395
     17 N           5.2848   43.0816    9.0634 N.ar    1  UNL1       -0.2294
     18 F           1.2882   45.4381    7.7182 F       1  UNL1       -0.2041
     19 H           7.4491   44.8703    7.4509 H       1  UNL1        0.1671
     20 C           9.8577   41.8276    6.5402 C.ar    1  UNL1        0.1119
     21 C          10.9692   41.5188    5.7840 C.ar    1  UNL1        0.0907
     22 C          10.5809   40.6224    4.8100 C.ar    1  UNL1        0.1363
     23 N           8.8446   41.1297    5.9994 N.ar    1  UNL1       -0.2387
     24 N           9.2620   40.4033    4.9748 N.ar    1  UNL1       -0.1658
     25 C          13.0930   41.7939    7.1586 C.2     1  UNL1        0.2497
     26 N          12.3058   41.9930    5.9761 N.am    1  UNL1       -0.2779
     27 O          12.5914   41.2347    8.1724 O.2     1  UNL1       -0.2698
     28 H          12.7182   42.4963    5.2373 H       1  UNL1        0.1553
     29 C          14.4930   42.2511    7.1932 C.ar    1  UNL1        0.0569
     30 C          15.3666   41.7918    8.2097 C.ar    1  UNL1        0.0078
     31 C          16.7075   42.2131    8.2531 C.ar    1  UNL1        0.0403
     32 C          17.1369   43.0901    7.2621 C.ar    1  UNL1        0.1764
     33 C          16.3081   43.5352    6.2844 C.ar    1  UNL1        0.1766
     34 C          18.3504   44.4799    5.9250 C.3     1  UNL1        0.4294
     35 C          14.9741   43.1430    6.2105 C.ar    1  UNL1        0.0447
     36 O          17.0012   44.3854    5.4455 O.3     1  UNL1       -0.4346
     37 O          18.3919   43.6383    7.0863 O.3     1  UNL1       -0.4346
@<TRIPOS>BOND
     1     9    16   ar
     2     2     9    1
     3     2     3    1
     4     2     7    1
     5     3     4    1
     6     4     5    1
     7     5     7    1
     8     1     6    1
     9     1    23    1
    10    21    22   ar
    11    21    26    1
    12    25    29    1
    13    30    31   ar
    14    32    33   ar
    15    32    37    1
    16    33    36    1
    17    34    36    1
    18    34    37    1
    19    35    29   ar
    20    11    12   ar
    21    11    17   ar
    22    13    14   ar
    23    13    18    1
    24    15    10   ar
    25     7     6   am
    26    23    20   ar
    27    23    24   ar
    28    26    25   am
    29    16    10   ar
    30     9    17   ar
    31     6     8    2
    32    20    21   ar
    33    22    24   ar
    34    25    27    2
    35    29    30   ar
    36    31    32   ar
    37    33    35   ar
    38    10    11   ar
    39    12    13   ar
    40    14    15   ar
    41    26    28    1
    42    16    19    1
@<TRIPOS>MOLECULE
MolPort-005-112-484 CSSS00159534780 MCULE-5873997542
 37 42 0 0 0
SMALL
GASTEIGER

@<TRIPOS>ATOM
      1 C           8.9788   42.2111   10.6022 C.3     1  UNL1        0.2121
      2 C           7.0615   42.3582    8.2626 C.3     1  UNL1        0.1319
      3 C           6.4376   42.7830    6.9449 C.3     1  UNL1        0.0293
      4 C           6.6255   44.2911    6.8467 C.3     1  UNL1        0.0237
      5 C           7.7102   44.6520    7.8439 C.3     1  UNL1        0.0939
      6 C           8.8359   43.4333    9.7510 C.2     1  UNL1        0.2508
      7 N           7.8668   43.4884    8.6934 N.am    1  UNL1       -0.2727
      8 O           9.5826   44.4238    9.9738 O.2     1  UNL1       -0.2727
      9 C           5.9867   42.0596    9.2606 C.ar    1  UNL1        0.1352
     10 C           4.8164   41.0176   10.6636 C.ar    1  UNL1        0.0755
     11 C           4.2989   42.2662   10.5007 C.ar    1  UNL1        0.1004
     12 C           3.1804   42.7024   11.2063 C.ar    1  UNL1        0.0502
     13 C           2.5868   41.7949   12.1037 C.ar    1  UNL1        0.1417
     14 C           3.1237   40.4983   12.2712 C.ar    1  UNL1        0.0312
     15 C           4.2588   40.0940   11.5438 C.ar    1  UNL1        0.0208
     16 N           5.8932   40.8557    9.8821 N.ar    1  UNL1       -0.3395
     17 N           5.0239   42.9559    9.6092 N.ar    1  UNL1       -0.2294
     18 F           1.5007   42.1707   12.8196 F       1  UNL1       -0.2041
     19 H           6.4703   40.0642    9.7836 H       1  UNL1        0.1671
     20 C          11.3386   41.4745   10.3713 C.ar    1  UNL1        0.1119
     21 C          11.9636   40.4362    9.7126 C.ar    1  UNL1        0.0907
     22 C          10.9938   39.7129    9.0496 C.ar    1  UNL1        0.1363
     23 N          10.0322   41.3566   10.0792 N.ar    1  UNL1       -0.2387
     24 N           9.8124   40.3093    9.3006 N.ar    1  UNL1       -0.1658
     25 C          14.0614   39.5345   10.8357 C.2     1  UNL1        0.2497
     26 N          13.3583   40.1155    9.7286 N.am    1  UNL1       -0.2779
     27 O          13.4739   39.3447   11.9361 O.2     1  UNL1       -0.2698
     28 H          13.8767   40.3092    8.9144 H       1  UNL1        0.1553
     29 C          15.4798   39.1637   10.6903 C.ar    1  UNL1        0.0569
     30 C          16.3900   40.0592   10.0762 C.ar    1  UNL1        0.0078
     31 C          17.7483   39.7235    9.9358 C.ar    1  UNL1        0.0403
     32 C          18.1575   38.4868   10.4242 C.ar    1  UNL1        0.1764
     33 C          17.2935   37.6226   11.0141 C.ar    1  UNL1        0.1766
     34 C          19.3509   36.6432   11.0313 C.3     1  UNL1        0.4294
     35 C          15.9416   37.9182   11.1680 C.ar    1  UNL1        0.0447
     36 O          17.9734   36.4844   11.4003 O.3     1  UNL1       -0.4346
     37 O          19.4229   37.9346   10.4105 O.3     1  UNL1       -0.4346
@<TRIPOS>BOND
     1     9    16   ar
     2     2     9    1
     3     2     3    1
     4     2     7    1
     5     3     4    1
     6     4     5    1
     7     5     7    1
     8     1     6    1
     9     1    23    1
    10    21    22   ar
    11    21    26    1
    12    25    29    1
    13    30    31   ar
    14    32    33   ar
    15    32    37    1
    16    33    36    1
    17    34    36    1
    18    34    37    1
    19    35    29   ar
    20    11    12   ar
    21    11    17   ar
    22    13    14   ar
    23    13    18    1
    24    15    10   ar
    25     7     6   am
    26    23    20   ar
    27    23    24   ar
    28    26    25   am
    29    16    10   ar
    30     9    17   ar
    31     6     8    2
    32    20    21   ar
    33    22    24   ar
    34    25    27    2
    35    29    30   ar
    36    31    32   ar
    37    33    35   ar
    38    10    11   ar
    39    12    13   ar
    40    14    15   ar
    41    26    28    1
    42    16    19    1
@<TRIPOS>MOLECULE
MolPort-005-112-484 CSSS00159534780 MCULE-5873997542
 37 42 0 0 0
SMALL
GASTEIGER

@<TRIPOS>ATOM
      1 C           6.2408   41.8150    8.7480 C.3     1  UNL1        0.2121
      2 C           8.2234   43.5584   10.2315 C.3     1  UNL1        0.1319
      3 C           8.9093   44.7920   10.7917 C.3     1  UNL1        0.0293
      4 C           8.8295   45.8581    9.7070 C.3     1  UNL1        0.0237
      5 C           7.7473   45.4074    8.7443 C.3     1  UNL1        0.0939
      6 C           6.4906   43.2443    8.3828 C.2     1  UNL1        0.2508
      7 N           7.4880   44.0183    9.0657 N.am    1  UNL1       -0.2727
      8 O           5.8092   43.7672    7.4605 O.2     1  UNL1       -0.2727
      9 C           9.2487   42.5386    9.8455 C.ar    1  UNL1        0.1352
     10 C          11.0975   41.6854    9.3183 C.ar    1  UNL1        0.0755
     11 C          10.1490   40.7089    9.3250 C.ar    1  UNL1        0.1004
     12 C          10.4507   39.3811    9.0333 C.ar    1  UNL1        0.0502
     13 C          11.7883   39.0752    8.7191 C.ar    1  UNL1        0.1417
     14 C          12.7722   40.0899    8.7108 C.ar    1  UNL1        0.0312
     15 C          12.4306   41.4208    9.0156 C.ar    1  UNL1        0.0208
     16 N          10.5515   42.8653    9.6439 N.ar    1  UNL1       -0.3395
     17 N           8.9567   41.2230    9.6567 N.ar    1  UNL1       -0.2294
     18 F          12.1367   37.7983    8.4339 F       1  UNL1       -0.2041
     19 H          10.9850   43.7461    9.7180 H       1  UNL1        0.1671
     20 C           4.8339   41.9170   10.7911 C.ar    1  UNL1        0.1119
     21 C           3.4884   41.7478   11.0437 C.ar    1  UNL1        0.0907
     22 C           2.8708   41.4390    9.8494 C.ar    1  UNL1        0.1363
     23 N           4.9876   41.6951    9.4747 N.ar    1  UNL1       -0.2387
     24 N           3.8275   41.4173    8.9014 N.ar    1  UNL1       -0.1658
     25 C           1.5126   42.4683   12.4762 C.2     1  UNL1        0.2497
     26 N           2.8174   41.8998   12.2987 N.am    1  UNL1       -0.2779
     27 O           0.8939   42.9649   11.4950 O.2     1  UNL1       -0.2698
     28 H           3.2894   41.5891   13.1049 H       1  UNL1        0.1553
     29 C           0.8933   42.4797   13.8129 C.ar    1  UNL1        0.0569
     30 C          -0.3538   41.8414   14.0248 C.ar    1  UNL1        0.0078
     31 C          -0.9551   41.8371   15.2959 C.ar    1  UNL1        0.0403
     32 C          -0.2779   42.4781   16.3284 C.ar    1  UNL1        0.1764
     33 C           0.9169   43.0917   16.1355 C.ar    1  UNL1        0.1766
     34 C           0.3699   43.3465   18.3328 C.3     1  UNL1        0.4294
     35 C           1.5414   43.1197   14.8913 C.ar    1  UNL1        0.0447
     36 O           1.3518   43.6366   17.3275 O.3     1  UNL1       -0.4346
     37 O          -0.6529   42.6068   17.6509 O.3     1  UNL1       -0.4346
@<TRIPOS>BOND
     1     9    16   ar
     2     2     9    1
     3     2     3    1
     4     2     7    1
     5     3     4    1
     6     4     5    1
     7     5     7    1
     8     1     6    1
     9     1    23    1
    10    21    22   ar
    11    21    26    1
    12    25    29    1
    13    30    31   ar
    14    32    33   ar
    15    32    37    1
    16    33    36    1
    17    34    36    1
    18    34    37    1
    19    35    29   ar
    20    11    12   ar
    21    11    17   ar
    22    13    14   ar
    23    13    18    1
    24    15    10   ar
    25     7     6   am
    26    23    20   ar
    27    23    24   ar
    28    26    25   am
    29    16    10   ar
    30     9    17   ar
    31     6     8    2
    32    20    21   ar
    33    22    24   ar
    34    25    27    2
    35    29    30   ar
    36    31    32   ar
    37    33    35   ar
    38    10    11   ar
    39    12    13   ar
    40    14    15   ar
    41    26    28    1
    42    16    19    1
@<TRIPOS>MOLECULE
MolPort-005-112-484 CSSS00159534780 MCULE-5873997542
 37 42 0 0 0
SMALL
GASTEIGER

@<TRIPOS>ATOM
      1 C           8.6489   43.5006   10.3268 C.3     1  UNL1        0.2121
      2 C           7.0645   42.2931    8.0459 C.3     1  UNL1        0.1319
      3 C           6.5144   42.0549    6.6507 C.3     1  UNL1        0.0293
      4 C           6.2961   43.4302    6.0342 C.3     1  UNL1        0.0237
      5 C           7.1116   44.4041    6.8633 C.3     1  UNL1        0.0939
      6 C           8.2844   44.2736    9.0987 C.2     1  UNL1        0.2508
      7 N           7.4735   43.6871    8.0696 N.am    1  UNL1       -0.2727
      8 O           8.7008   45.4567    8.9755 O.2     1  UNL1       -0.2727
      9 C           5.9977   42.0342    9.0634 C.ar    1  UNL1        0.1352
     10 C           4.8671   41.0672   10.5502 C.ar    1  UNL1        0.0755
     11 C           4.2935   42.2708   10.2754 C.ar    1  UNL1        0.1004
     12 C           3.1511   42.7151   10.9363 C.ar    1  UNL1        0.0502
     13 C           2.5938   41.8640   11.9091 C.ar    1  UNL1        0.1417
     14 C           3.1890   40.6138   12.1926 C.ar    1  UNL1        0.0312
     15 C           4.3467   40.2002   11.5073 C.ar    1  UNL1        0.0208
     16 N           5.9556   40.8871    9.7892 N.ar    1  UNL1       -0.3395
     17 N           4.9920   42.9119    9.3282 N.ar    1  UNL1       -0.2294
     18 F           1.4866   42.2506   12.5856 F       1  UNL1       -0.2041
     19 H           6.5694   40.1178    9.7630 H       1  UNL1        0.1671
     20 C           9.8651   41.3596   10.0088 C.ar    1  UNL1        0.1119
     21 C          11.1696   41.0283    9.7069 C.ar    1  UNL1        0.0907
     22 C          11.8870   42.2011    9.5937 C.ar    1  UNL1        0.1363
     23 N           9.8379   42.7011   10.0812 N.ar    1  UNL1       -0.2387
     24 N          11.0314   43.2145    9.8292 N.ar    1  UNL1       -0.1658
     25 C          12.8970   39.2037   10.1096 C.2     1  UNL1        0.2497
     26 N          11.7041   39.7169    9.5003 N.am    1  UNL1       -0.2779
     27 O          13.6173   39.9488   10.8293 O.2     1  UNL1       -0.2698
     28 H          11.2137   39.1189    8.8911 H       1  UNL1        0.1553
     29 C          13.2882   37.8007    9.8883 C.ar    1  UNL1        0.0569
     30 C          12.4653   36.7493   10.3623 C.ar    1  UNL1        0.0078
     31 C          12.8207   35.4049   10.1534 C.ar    1  UNL1        0.0403
     32 C          14.0031   35.1533    9.4648 C.ar    1  UNL1        0.1764
     33 C          14.7976   36.1533    9.0067 C.ar    1  UNL1        0.1766
     34 C          15.7811   34.1828    8.4214 C.3     1  UNL1        0.4294
     35 C          14.4807   37.4957    9.1971 C.ar    1  UNL1        0.0447
     36 O          15.8939   35.6122    8.3646 O.3     1  UNL1       -0.4346
     37 O          14.5605   33.9344    9.1333 O.3     1  UNL1       -0.4346
@<TRIPOS>BOND
     1     9    16   ar
     2     2     9    1
     3     2     3    1
     4     2     7    1
     5     3     4    1
     6     4     5    1
     7     5     7    1
     8     1     6    1
     9     1    23    1
    10    21    22   ar
    11    21    26    1
    12    25    29    1
    13    30    31   ar
    14    32    33   ar
    15    32    37    1
    16    33    36    1
    17    34    36    1
    18    34    37    1
    19    35    29   ar
    20    11    12   ar
    21    11    17   ar
    22    13    14   ar
    23    13    18    1
    24    15    10   ar
    25     7     6   am
    26    23    20   ar
    27    23    24   ar
    28    26    25   am
    29    16    10   ar
    30     9    17   ar
    31     6     8    2
    32    20    21   ar
    33    22    24   ar
    34    25    27    2
    35    29    30   ar
    36    31    32   ar
    37    33    35   ar
    38    10    11   ar
    39    12    13   ar
    40    14    15   ar
    41    26    28    1
    42    16    19    1
@<TRIPOS>MOLECULE
MolPort-005-112-484 CSSS00159534780 MCULE-5873997542
 37 42 0 0 0
SMALL
GASTEIGER

@<TRIPOS>ATOM
      1 C          13.6191   42.9720    7.9872 C.3     1  UNL1        0.2121
      2 C          16.6154   43.4103    8.0235 C.3     1  UNL1        0.1319
      3 C          18.0006   43.8802    7.6156 C.3     1  UNL1        0.0293
      4 C          18.0679   43.7545    6.0993 C.3     1  UNL1        0.0237
      5 C          16.6339   43.6512    5.6154 C.3     1  UNL1        0.0939
      6 C          14.4106   43.2433    6.7467 C.2     1  UNL1        0.2508
      7 N          15.8389   43.3776    6.7958 N.am    1  UNL1       -0.2727
      8 O          13.8045   43.3543    5.6474 O.2     1  UNL1       -0.2727
      9 C          16.7013   42.0470    8.6353 C.ar    1  UNL1        0.1352
     10 C          17.5093   40.3069    9.4973 C.ar    1  UNL1        0.0755
     11 C          16.1611   40.1558    9.3841 C.ar    1  UNL1        0.1004
     12 C          15.5060   39.0045    9.8136 C.ar    1  UNL1        0.0502
     13 C          16.2948   37.9811   10.3720 C.ar    1  UNL1        0.1417
     14 C          17.6946   38.1380   10.4877 C.ar    1  UNL1        0.0312
     15 C          18.3215   39.3185   10.0467 C.ar    1  UNL1        0.0208
     16 N          17.8837   41.5037    9.0244 N.ar    1  UNL1       -0.3395
     17 N          15.6163   41.2504    8.8353 N.ar    1  UNL1       -0.2294
     18 F          15.7070   36.8433   10.8113 F       1  UNL1       -0.2041
     19 H          18.7873   41.8911    8.9722 H       1  UNL1        0.1671
     20 C          11.1791   42.6625    8.3261 C.ar    1  UNL1        0.1119
     21 C          10.1828   42.0188    7.6220 C.ar    1  UNL1        0.0907
     22 C          10.7603   41.4318    6.5153 C.ar    1  UNL1        0.1363
     23 N          12.3128   42.4364    7.6409 N.ar    1  UNL1       -0.2387
     24 N          12.0770   41.7125    6.5584 N.ar    1  UNL1       -0.1658
     25 C           8.0791   42.9847    8.6788 C.2     1  UNL1        0.2497
     26 N           8.7865   41.9833    7.9344 N.am    1  UNL1       -0.2779
     27 O           8.7002   43.9548    9.1937 O.2     1  UNL1       -0.2698
     28 H           8.2701   41.2095    7.6124 H       1  UNL1        0.1553
     29 C           6.6198   42.8770    8.8500 C.ar    1  UNL1        0.0569
     30 C           5.7792   43.9587    8.4886 C.ar    1  UNL1        0.0078
     31 C           4.3839   43.8696    8.6393 C.ar    1  UNL1        0.0403
     32 C           3.8683   42.6830    9.1509 C.ar    1  UNL1        0.1764
     33 C           4.6650   41.6415    9.4995 C.ar    1  UNL1        0.1766
     34 C           2.5129   41.0183    9.9145 C.3     1  UNL1        0.4294
     35 C           6.0502   41.6937    9.3679 C.ar    1  UNL1        0.0447
     36 O           3.8855   40.6038    9.9712 O.3     1  UNL1       -0.4346
     37 O           2.5488   42.3516    9.3862 O.3     1  UNL1       -0.4346
@<TRIPOS>BOND
     1     9    16   ar
     2     2     9    1
     3     2     3    1
     4     2     7    1
     5     3     4    1
     6     4     5    1
     7     5     7    1
     8     1     6    1
     9     1    23    1
    10    21    22   ar
    11    21    26    1
    12    25    29    1
    13    30    31   ar
    14    32    33   ar
    15    32    37    1
    16    33    36    1
    17    34    36    1
    18    34    37    1
    19    35    29   ar
    20    11    12   ar
    21    11    17   ar
    22    13    14   ar
    23    13    18    1
    24    15    10   ar
    25     7     6   am
    26    23    20   ar
    27    23    24   ar
    28    26    25   am
    29    16    10   ar
    30     9    17   ar
    31     6     8    2
    32    20    21   ar
    33    22    24   ar
    34    25    27    2
    35    29    30   ar
    36    31    32   ar
    37    33    35   ar
    38    10    11   ar
    39    12    13   ar
    40    14    15   ar
    41    26    28    1
    42    16    19    1
@<TRIPOS>MOLECULE
MolPort-005-112-484 CSSS00159534780 MCULE-5873997542
 37 42 0 0 0
SMALL
GASTEIGER

@<TRIPOS>ATOM
      1 C           7.5088   43.9916    7.8730 C.3     1  UNL1        0.2121
      2 C           7.5302   40.9718    8.1000 C.3     1  UNL1        0.1319
      3 C           7.7475   39.5095    7.7528 C.3     1  UNL1        0.0293
      4 C           7.4182   39.3656    6.2729 C.3     1  UNL1        0.0237
      5 C           7.4520   40.7656    5.6899 C.3     1  UNL1        0.0939
      6 C           7.5051   43.0918    6.6775 C.2     1  UNL1        0.2508
      7 N           7.4461   41.6653    6.8260 N.am    1  UNL1       -0.2727
      8 O           7.5553   43.6042    5.5271 O.2     1  UNL1       -0.2727
      9 C           6.2590   41.1262    8.8749 C.ar    1  UNL1        0.1352
     10 C           4.2051   41.2096    9.3206 C.ar    1  UNL1        0.0755
     11 C           4.9117   41.4679   10.4552 C.ar    1  UNL1        0.1004
     12 C           4.2886   41.7191   11.6749 C.ar    1  UNL1        0.0502
     13 C           2.8812   41.7043   11.6980 C.ar    1  UNL1        0.1417
     14 C           2.1483   41.4375   10.5193 C.ar    1  UNL1        0.0312
     15 C           2.8131   41.1833    9.3050 C.ar    1  UNL1        0.0208
     16 N           5.0388   40.9905    8.2943 N.ar    1  UNL1       -0.3395
     17 N           6.2271   41.4234   10.2025 N.ar    1  UNL1       -0.2294
     18 F           2.2255   41.9360   12.8596 F       1  UNL1       -0.2041
     19 H           4.8215   40.7836    7.3566 H       1  UNL1        0.1671
     20 C           9.6589   42.8812    8.4284 C.ar    1  UNL1        0.1119
     21 C          10.4612   42.8419    9.5498 C.ar    1  UNL1        0.0907
     22 C           9.8504   43.5938   10.5319 C.ar    1  UNL1        0.1363
     23 N           8.5975   43.6327    8.7669 N.ar    1  UNL1       -0.2387
     24 N           8.7022   44.0689   10.0120 N.ar    1  UNL1       -0.1658
     25 C          11.9160   40.8566   10.1962 C.2     1  UNL1        0.2497
     26 N          11.7248   42.1841    9.6874 N.am    1  UNL1       -0.2779
     27 O          10.9385   40.2000   10.6493 O.2     1  UNL1       -0.2698
     28 H          12.5273   42.6827    9.4106 H       1  UNL1        0.1553
     29 C          13.2623   40.2584   10.1969 C.ar    1  UNL1        0.0569
     30 C          14.2009   40.6172    9.1981 C.ar    1  UNL1        0.0078
     31 C          15.4922   40.0607    9.1884 C.ar    1  UNL1        0.0403
     32 C          15.8073   39.1530   10.1946 C.ar    1  UNL1        0.1764
     33 C          14.9156   38.8034   11.1556 C.ar    1  UNL1        0.1766
     34 C          16.8418   37.6581   11.5682 C.3     1  UNL1        0.4294
     35 C          13.6274   39.3305   11.1961 C.ar    1  UNL1        0.0447
     36 O          15.4990   37.8941   12.0156 O.3     1  UNL1       -0.4346
     37 O          16.9953   38.4809   10.4029 O.3     1  UNL1       -0.4346
@<TRIPOS>BOND
     1     9    16   ar
     2     2     9    1
     3     2     3    1
     4     2     7    1
     5     3     4    1
     6     4     5    1
     7     5     7    1
     8     1     6    1
     9     1    23    1
    10    21    22   ar
    11    21    26    1
    12    25    29    1
    13    30    31   ar
    14    32    33   ar
    15    32    37    1
    16    33    36    1
    17    34    36    1
    18    34    37    1
    19    35    29   ar
    20    11    12   ar
    21    11    17   ar
    22    13    14   ar
    23    13    18    1
    24    15    10   ar
    25     7     6   am
    26    23    20   ar
    27    23    24   ar
    28    26    25   am
    29    16    10   ar
    30     9    17   ar
    31     6     8    2
    32    20    21   ar
    33    22    24   ar
    34    25    27    2
    35    29    30   ar
    36    31    32   ar
    37    33    35   ar
    38    10    11   ar
    39    12    13   ar
    40    14    15   ar
    41    26    28    1
    42    16    19    1
@<TRIPOS>MOLECULE
MolPort-005-112-484 CSSS00159534780 MCULE-5873997542
 37 42 0 0 0
SMALL
GASTEIGER

@<TRIPOS>ATOM
      1 C           9.7256   40.7881    9.7279 C.3     1  UNL1        0.2121
      2 C           8.0644   43.0535    8.5968 C.3     1  UNL1        0.1319
      3 C           7.6540   44.4450    8.1482 C.3     1  UNL1        0.0293
      4 C           8.2146   45.4126    9.1820 C.3     1  UNL1        0.0237
      5 C           9.2858   44.6528    9.9412 C.3     1  UNL1        0.0939
      6 C           9.9459   42.2185   10.1073 C.2     1  UNL1        0.2508
      7 N           9.0933   43.2570    9.6024 N.am    1  UNL1       -0.2727
      8 O          10.8975   42.5054   10.8823 O.2     1  UNL1       -0.2727
      9 C           6.8851   42.3392    9.1791 C.ar    1  UNL1        0.1352
     10 C           4.9591   41.5149    9.3661 C.ar    1  UNL1        0.0755
     11 C           5.6478   41.2880   10.5182 C.ar    1  UNL1        0.1004
     12 C           5.0904   40.5960   11.5904 C.ar    1  UNL1        0.0502
     13 C           3.7677   40.1362   11.4467 C.ar    1  UNL1        0.1417
     14 C           3.0529   40.3735   10.2509 C.ar    1  UNL1        0.0312
     15 C           3.6510   41.0730    9.1860 C.ar    1  UNL1        0.0208
     16 N           5.7227   42.1870    8.4934 N.ar    1  UNL1       -0.3395
     17 N           6.8814   41.8041   10.4303 N.ar    1  UNL1       -0.2294
     18 F           3.1805   39.4521   12.4569 F       1  UNL1       -0.2041
     19 H           5.4978   42.4929    7.5851 H       1  UNL1        0.1671
     20 C          11.4916   39.0993    9.2877 C.ar    1  UNL1        0.1119
     21 C          12.5024   38.9829    8.3564 C.ar    1  UNL1        0.0907
     22 C          12.4608   40.0993    7.5471 C.ar    1  UNL1        0.1363
     23 N          10.8885   40.2712    9.0253 N.ar    1  UNL1       -0.2387
     24 N          11.4497   40.8723    7.9884 N.ar    1  UNL1       -0.1658
     25 C          14.4031   37.4993    9.1696 C.2     1  UNL1        0.2497
     26 N          13.4181   37.8936    8.2043 N.am    1  UNL1       -0.2779
     27 O          14.5770   38.1792   10.2182 O.2     1  UNL1       -0.2698
     28 H          13.3679   37.3730    7.3702 H       1  UNL1        0.1553
     29 C          15.2221   36.2978    8.9328 C.ar    1  UNL1        0.0569
     30 C          16.6296   36.4084    8.8128 C.ar    1  UNL1        0.0078
     31 C          17.4264   35.2707    8.5934 C.ar    1  UNL1        0.0403
     32 C          16.7799   34.0422    8.5032 C.ar    1  UNL1        0.1764
     33 C          15.4328   33.9260    8.6172 C.ar    1  UNL1        0.1766
     34 C          16.2687   31.8326    8.2837 C.3     1  UNL1        0.4294
     35 C          14.6110   35.0294    8.8313 C.ar    1  UNL1        0.0447
     36 O          15.0732   32.5989    8.4896 O.3     1  UNL1       -0.4346
     37 O          17.3335   32.7940    8.2984 O.3     1  UNL1       -0.4346
@<TRIPOS>BOND
     1     9    16   ar
     2     2     9    1
     3     2     3    1
     4     2     7    1
     5     3     4    1
     6     4     5    1
     7     5     7    1
     8     1     6    1
     9     1    23    1
    10    21    22   ar
    11    21    26    1
    12    25    29    1
    13    30    31   ar
    14    32    33   ar
    15    32    37    1
    16    33    36    1
    17    34    36    1
    18    34    37    1
    19    35    29   ar
    20    11    12   ar
    21    11    17   ar
    22    13    14   ar
    23    13    18    1
    24    15    10   ar
    25     7     6   am
    26    23    20   ar
    27    23    24   ar
    28    26    25   am
    29    16    10   ar
    30     9    17   ar
    31     6     8    2
    32    20    21   ar
    33    22    24   ar
    34    25    27    2
    35    29    30   ar
    36    31    32   ar
    37    33    35   ar
    38    10    11   ar
    39    12    13   ar
    40    14    15   ar
    41    26    28    1
    42    16    19    1
@<TRIPOS>MOLECULE
MolPort-005-112-484 CSSS00159534780 MCULE-5873997542
 37 42 0 0 0
SMALL
GASTEIGER

@<TRIPOS>ATOM
      1 C           6.7867   40.8636    7.0617 C.3     1  UNL1        0.2121
      2 C           5.0195   43.3088    7.3251 C.3     1  UNL1        0.1319
      3 C           4.5401   44.7472    7.2394 C.3     1  UNL1        0.0293
      4 C           5.7459   45.6217    7.5569 C.3     1  UNL1        0.0237
      5 C           6.9691   44.7415    7.3836 C.3     1  UNL1        0.0939
      6 C           7.3363   42.2535    7.1300 C.2     1  UNL1        0.2508
      7 N           6.4707   43.3821    7.3239 N.am    1  UNL1       -0.2727
      8 O           8.5794   42.4253    7.0140 O.2     1  UNL1       -0.2727
      9 C           4.5195   42.6813    8.5886 C.ar    1  UNL1        0.1352
     10 C           4.2551   41.2882   10.1420 C.ar    1  UNL1        0.0755
     11 C           3.4591   42.3668   10.3791 C.ar    1  UNL1        0.1004
     12 C           2.6457   42.4538   11.5061 C.ar    1  UNL1        0.0502
     13 C           2.6669   41.3707   12.4048 C.ar    1  UNL1        0.1417
     14 C           3.4924   40.2505   12.1572 C.ar    1  UNL1        0.0312
     15 C           4.3050   40.1999   11.0091 C.ar    1  UNL1        0.0208
     16 N           4.9419   41.4592    9.0039 N.ar    1  UNL1       -0.3395
     17 N           3.6045   43.2738    9.4033 N.ar    1  UNL1       -0.2294
     18 F           1.8996   41.4073   13.5197 F       1  UNL1       -0.2041
     19 H           5.5889   40.8524    8.5769 H       1  UNL1        0.1671
     20 C           8.9796   40.0700    7.9135 C.ar    1  UNL1        0.1119
     21 C           9.6864   38.8907    7.8029 C.ar    1  UNL1        0.0907
     22 C           8.9497   38.0298    7.0161 C.ar    1  UNL1        0.1363
     23 N           7.8612   39.8930    7.1899 N.ar    1  UNL1       -0.2387
     24 N           7.8271   38.6820    6.6571 N.ar    1  UNL1       -0.1658
     25 C          11.3715   39.0308    9.7045 C.2     1  UNL1        0.2497
     26 N          10.9398   38.5719    8.4159 N.am    1  UNL1       -0.2779
     27 O          10.6678   39.8479   10.3596 O.2     1  UNL1       -0.2698
     28 H          11.5550   37.9909    7.9128 H       1  UNL1        0.1553
     29 C          12.6472   38.5515   10.2641 C.ar    1  UNL1        0.0569
     30 C          12.7308   37.2601   10.8409 C.ar    1  UNL1        0.0078
     31 C          13.9424   36.7848   11.3732 C.ar    1  UNL1        0.0403
     32 C          15.0469   37.6281   11.3071 C.ar    1  UNL1        0.1764
     33 C          14.9771   38.8662   10.7564 C.ar    1  UNL1        0.1766
     34 C          17.1223   38.5563   11.4595 C.3     1  UNL1        0.4294
     35 C          13.7949   39.3724   10.2225 C.ar    1  UNL1        0.0447
     36 O          16.2163   39.4714   10.8264 O.3     1  UNL1       -0.4346
     37 O          16.3334   37.3938   11.7504 O.3     1  UNL1       -0.4346
@<TRIPOS>BOND
     1     9    16   ar
     2     2     9    1
     3     2     3    1
     4     2     7    1
     5     3     4    1
     6     4     5    1
     7     5     7    1
     8     1     6    1
     9     1    23    1
    10    21    22   ar
    11    21    26    1
    12    25    29    1
    13    30    31   ar
    14    32    33   ar
    15    32    37    1
    16    33    36    1
    17    34    36    1
    18    34    37    1
    19    35    29   ar
    20    11    12   ar
    21    11    17   ar
    22    13    14   ar
    23    13    18    1
    24    15    10   ar
    25     7     6   am
    26    23    20   ar
    27    23    24   ar
    28    26    25   am
    29    16    10   ar
    30     9    17   ar
    31     6     8    2
    32    20    21   ar
    33    22    24   ar
    34    25    27    2
    35    29    30   ar
    36    31    32   ar
    37    33    35   ar
    38    10    11   ar
    39    12    13   ar
    40    14    15   ar
    41    26    28    1
    42    16    19    1
