@<TRIPOS>MOLECULE
MolPort-035-706-965 CSSS03437789219 MCULE-5786311522 PubChem-91938290
 30 32 0 0 0
SMALL
GASTEIGER

@<TRIPOS>ATOM
      1 C          13.3123   36.9362    9.9384 C.3     1  UNL1        0.2880
      2 C          13.9900   35.7952    9.1955 C.3     1  UNL1        0.0650
      3 C          12.4446   38.9420    8.6896 C.ar    1  UNL1        0.1542
      4 C          12.7430   40.1011    7.9670 C.ar    1  UNL1        0.0529
      5 C          11.7174   40.9298    7.4985 C.ar    1  UNL1        0.0534
      6 C          10.3822   40.5840    7.7587 C.ar    1  UNL1        0.0161
      7 C          10.0798   39.4252    8.4792 C.ar    1  UNL1        0.0190
      8 C          11.1113   38.6061    8.9440 C.ar    1  UNL1        0.0850
      9 C          11.8564   36.5782   10.1585 C.2     1  UNL1        0.2732
     10 O          13.4834   38.1262    9.1506 O.3     1  UNL1       -0.4618
     11 O          11.5524   35.5288   10.7871 O.2     1  UNL1       -0.2704
     12 N          10.8121   37.4211    9.6718 N.am    1  UNL1       -0.2783
     13 H           9.8731   37.1793    9.8421 H       1  UNL1        0.1551
     14 C          13.3899   42.5694    6.4572 C.2     1  UNL1        0.2264
     15 O          14.4067   41.9170    6.8129 O.2     1  UNL1       -0.2748
     16 N          12.0663   42.1075    6.7587 N.am    1  UNL1       -0.2838
     17 H          11.3203   42.6555    6.4233 H       1  UNL1        0.1549
     18 C          13.5684   43.8484    5.7121 C.3     1  UNL1        0.0900
     19 C          14.9031   43.8784    4.9764 C.3     1  UNL1        0.0359
     20 C          16.0591   43.8899    5.9230 C.ar    1  UNL1       -0.0217
     21 C          15.8775   44.2211    7.2723 C.ar    1  UNL1       -0.0043
     22 C          16.9724   44.2503    8.1413 C.ar    1  UNL1       -0.0003
     23 C          18.2524   43.9560    7.6624 C.ar    1  UNL1       -0.0000
     24 C          18.4380   43.6353    6.3142 C.ar    1  UNL1       -0.0003
     25 C          17.3430   43.6059    5.4450 C.ar    1  UNL1       -0.0043
     26 C          13.9776   37.1315   11.2736 C.2     1  UNL1        0.3623
     27 O          14.3363   36.1276   11.9496 O.2     1  UNL1       -0.2457
     28 O          14.2531   38.4231   11.7323 O.3     1  UNL1       -0.4458
     29 C          16.5303   37.9366   11.1648 C.3     1  UNL1        0.0513
     30 C          15.5548   38.9845   11.6585 C.3     1  UNL1        0.2087
@<TRIPOS>BOND
     1    29    30    1
     2    30    28    1
     3    26    28    1
     4     1    26    1
     5     1     2    1
     6     1    10    1
     7     1     9    1
     8     3    10    1
     9     4     5   ar
    10     5    16    1
    11    18    14    1
    12    18    19    1
    13    19    20    1
    14    21    22   ar
    15    23    24   ar
    16    25    20   ar
    17     6     7   ar
    18     8    12    1
    19     8     3   ar
    20    16    14   am
    21    12     9   am
    22    26    27    2
    23     3     4   ar
    24     5     6   ar
    25    14    15    2
    26    20    21   ar
    27    22    23   ar
    28    24    25   ar
    29     7     8   ar
    30     9    11    2
    31    16    17    1
    32    12    13    1
@<TRIPOS>MOLECULE
MolPort-035-706-965 CSSS03437789219 MCULE-5786311522 PubChem-91938290
 30 32 0 0 0
SMALL
GASTEIGER

@<TRIPOS>ATOM
      1 C           5.4266   42.2908    9.4521 C.3     1  UNL1        0.2880
      2 C           5.2142   42.0278   10.9349 C.3     1  UNL1        0.0650
      3 C           7.3800   41.2698    8.2366 C.ar    1  UNL1        0.1542
      4 C           8.7636   41.2471    8.0372 C.ar    1  UNL1        0.0529
      5 C           9.3312   40.3834    7.0938 C.ar    1  UNL1        0.0534
      6 C           8.4965   39.5354    6.3494 C.ar    1  UNL1        0.0161
      7 C           7.1131   39.5540    6.5470 C.ar    1  UNL1        0.0190
      8 C           6.5567   40.4214    7.4899 C.ar    1  UNL1        0.0850
      9 C           4.5675   41.3275    8.6581 C.2     1  UNL1        0.2732
     10 O           6.8307   42.1405    9.1838 O.3     1  UNL1       -0.4618
     11 O           3.3189   41.3069    8.8292 O.2     1  UNL1       -0.2704
     12 N           5.1504   40.4415    7.7025 N.am    1  UNL1       -0.2783
     13 H           4.5717   39.8369    7.1840 H       1  UNL1        0.1551
     14 C          11.6858   41.3041    7.5159 C.2     1  UNL1        0.2264
     15 O          11.3020   42.2058    8.3069 O.2     1  UNL1       -0.2748
     16 N          10.7549   40.3891    6.9225 N.am    1  UNL1       -0.2838
     17 H          11.1320   39.6930    6.3373 H       1  UNL1        0.1549
     18 C          13.1359   41.1905    7.1885 C.3     1  UNL1        0.0900
     19 C          13.6686   42.4826    6.5801 C.3     1  UNL1        0.0359
     20 C          15.0526   42.7897    7.0522 C.ar    1  UNL1       -0.0217
     21 C          15.6769   41.9849    8.0144 C.ar    1  UNL1       -0.0043
     22 C          16.9633   42.2980    8.4638 C.ar    1  UNL1       -0.0003
     23 C          17.6259   43.4203    7.9581 C.ar    1  UNL1       -0.0000
     24 C          17.0013   44.2310    7.0055 C.ar    1  UNL1       -0.0003
     25 C          15.7147   43.9178    6.5559 C.ar    1  UNL1       -0.0043
     26 C           5.0128   43.7004    9.1276 C.2     1  UNL1        0.3623
     27 O           3.8062   44.0470    9.2590 O.2     1  UNL1       -0.2457
     28 O           5.9758   44.6378    8.7424 O.3     1  UNL1       -0.4458
     29 C           8.1250   45.3729    9.5072 C.3     1  UNL1        0.0513
     30 C           7.3608   44.3270    8.7227 C.3     1  UNL1        0.2087
@<TRIPOS>BOND
     1    29    30    1
     2    30    28    1
     3    26    28    1
     4     1    26    1
     5     1     2    1
     6     1    10    1
     7     1     9    1
     8     3    10    1
     9     4     5   ar
    10     5    16    1
    11    18    14    1
    12    18    19    1
    13    19    20    1
    14    21    22   ar
    15    23    24   ar
    16    25    20   ar
    17     6     7   ar
    18     8    12    1
    19     8     3   ar
    20    16    14   am
    21    12     9   am
    22    26    27    2
    23     3     4   ar
    24     5     6   ar
    25    14    15    2
    26    20    21   ar
    27    22    23   ar
    28    24    25   ar
    29     7     8   ar
    30     9    11    2
    31    16    17    1
    32    12    13    1
@<TRIPOS>MOLECULE
MolPort-035-706-965 CSSS03437789219 MCULE-5786311522 PubChem-91938290
 30 32 0 0 0
SMALL
GASTEIGER

@<TRIPOS>ATOM
      1 C           6.6079   42.5922    7.7071 C.3     1  UNL1        0.2880
      2 C           6.1526   43.2334    6.4053 C.3     1  UNL1        0.0650
      3 C           9.0571   42.4135    8.2594 C.ar    1  UNL1        0.1542
      4 C          10.2880   41.8118    7.9807 C.ar    1  UNL1        0.0529
      5 C          11.4223   42.1326    8.7348 C.ar    1  UNL1        0.0534
      6 C          11.3133   43.0690    9.7746 C.ar    1  UNL1        0.0161
      7 C          10.0850   43.6739   10.0552 C.ar    1  UNL1        0.0190
      8 C           8.9586   43.3450    9.2975 C.ar    1  UNL1        0.0850
      9 C           6.5454   43.6298    8.8097 C.2     1  UNL1        0.2732
     10 O           7.9339   42.0796    7.4951 O.3     1  UNL1       -0.4618
     11 O           5.4561   44.2071    9.0723 O.2     1  UNL1       -0.2704
     12 N           7.7062   43.9613    9.5716 N.am    1  UNL1       -0.2783
     13 H           7.6392   44.6247   10.2959 H       1  UNL1        0.1551
     14 C          13.4368   40.6409    9.2699 C.2     1  UNL1        0.2264
     15 O          13.0372   40.3413   10.4260 O.2     1  UNL1       -0.2748
     16 N          12.6662   41.4953    8.4142 N.am    1  UNL1       -0.2838
     17 H          13.0283   41.6615    7.5140 H       1  UNL1        0.1549
     18 C          14.7384   40.0988    8.7854 C.3     1  UNL1        0.0900
     19 C          15.9131   40.8724    9.3731 C.3     1  UNL1        0.0359
     20 C          16.3143   42.0189    8.5029 C.ar    1  UNL1       -0.0217
     21 C          15.5280   42.3960    7.4062 C.ar    1  UNL1       -0.0043
     22 C          15.9281   43.4560    6.5871 C.ar    1  UNL1       -0.0003
     23 C          17.1187   44.1370    6.8576 C.ar    1  UNL1       -0.0000
     24 C          17.9106   43.7561    7.9452 C.ar    1  UNL1       -0.0003
     25 C          17.5104   42.6960    8.7646 C.ar    1  UNL1       -0.0043
     26 C           5.6901   41.4515    8.0531 C.2     1  UNL1        0.3623
     27 O           5.6701   40.4188    7.3274 O.2     1  UNL1       -0.2457
     28 O           4.9091   41.5124    9.2110 O.3     1  UNL1       -0.4458
     29 C           4.2208   40.4340   11.2377 C.3     1  UNL1        0.0513
     30 C           5.3776   41.0250   10.4593 C.3     1  UNL1        0.2087
@<TRIPOS>BOND
     1    29    30    1
     2    30    28    1
     3    26    28    1
     4     1    26    1
     5     1     2    1
     6     1    10    1
     7     1     9    1
     8     3    10    1
     9     4     5   ar
    10     5    16    1
    11    18    14    1
    12    18    19    1
    13    19    20    1
    14    21    22   ar
    15    23    24   ar
    16    25    20   ar
    17     6     7   ar
    18     8    12    1
    19     8     3   ar
    20    16    14   am
    21    12     9   am
    22    26    27    2
    23     3     4   ar
    24     5     6   ar
    25    14    15    2
    26    20    21   ar
    27    22    23   ar
    28    24    25   ar
    29     7     8   ar
    30     9    11    2
    31    16    17    1
    32    12    13    1
@<TRIPOS>MOLECULE
MolPort-035-706-965 CSSS03437789219 MCULE-5786311522 PubChem-91938290
 30 32 0 0 0
SMALL
GASTEIGER

@<TRIPOS>ATOM
      1 C           8.2228   41.8466    9.8605 C.3     1  UNL1        0.2880
      2 C           7.3036   41.6005   11.0469 C.3     1  UNL1        0.0650
      3 C          10.3740   40.5624    9.6181 C.ar    1  UNL1        0.1542
      4 C          11.6723   40.3376   10.0855 C.ar    1  UNL1        0.0529
      5 C          12.5057   39.4107    9.4495 C.ar    1  UNL1        0.0534
      6 C          12.0237   38.7043    8.3365 C.ar    1  UNL1        0.0161
      7 C          10.7258   38.9250    7.8673 C.ar    1  UNL1        0.0190
      8 C           9.9029   39.8539    8.5084 C.ar    1  UNL1        0.0850
      9 C           7.7286   41.0304    8.6832 C.2     1  UNL1        0.2732
     10 O           9.5556   41.4935   10.2664 O.3     1  UNL1       -0.4618
     11 O           6.5559   41.1927    8.2504 O.2     1  UNL1       -0.2704
     12 N           8.5782   40.0794    8.0418 N.am    1  UNL1       -0.2783
     13 H           8.2431   39.5731    7.2668 H       1  UNL1        0.1551
     14 C          14.2130   39.1452   11.3427 C.2     1  UNL1        0.2264
     15 O          13.3587   39.2361   12.2635 O.2     1  UNL1       -0.2748
     16 N          13.8292   39.2077    9.9626 N.am    1  UNL1       -0.2838
     17 H          14.5484   39.1002    9.2989 H       1  UNL1        0.1549
     18 C          15.6510   38.9735   11.6970 C.3     1  UNL1        0.0900
     19 C          16.5562   39.3266   10.5225 C.3     1  UNL1        0.0359
     20 C          17.4469   38.1878   10.1455 C.ar    1  UNL1       -0.0217
     21 C          18.8283   38.2530   10.3713 C.ar    1  UNL1       -0.0043
     22 C          19.6524   37.1892    9.9920 C.ar    1  UNL1       -0.0003
     23 C          19.0992   36.0609    9.3793 C.ar    1  UNL1       -0.0000
     24 C          17.7225   35.9977    9.1434 C.ar    1  UNL1       -0.0003
     25 C          16.8981   37.0615    9.5229 C.ar    1  UNL1       -0.0043
     26 C           8.1912   43.3056    9.4949 C.2     1  UNL1        0.3623
     27 O           8.7951   44.1473   10.2162 O.2     1  UNL1       -0.2457
     28 O           7.5469   43.7165    8.3242 O.3     1  UNL1       -0.4458
     29 C           5.2330   44.2844    8.0642 C.3     1  UNL1        0.0513
     30 C           6.6339   44.8035    8.3114 C.3     1  UNL1        0.2087
@<TRIPOS>BOND
     1    29    30    1
     2    30    28    1
     3    26    28    1
     4     1    26    1
     5     1     2    1
     6     1    10    1
     7     1     9    1
     8     3    10    1
     9     4     5   ar
    10     5    16    1
    11    18    14    1
    12    18    19    1
    13    19    20    1
    14    21    22   ar
    15    23    24   ar
    16    25    20   ar
    17     6     7   ar
    18     8    12    1
    19     8     3   ar
    20    16    14   am
    21    12     9   am
    22    26    27    2
    23     3     4   ar
    24     5     6   ar
    25    14    15    2
    26    20    21   ar
    27    22    23   ar
    28    24    25   ar
    29     7     8   ar
    30     9    11    2
    31    16    17    1
    32    12    13    1
@<TRIPOS>MOLECULE
MolPort-035-706-965 CSSS03437789219 MCULE-5786311522 PubChem-91938290
 30 32 0 0 0
SMALL
GASTEIGER

@<TRIPOS>ATOM
      1 C          15.1060   38.5304    9.9643 C.3     1  UNL1        0.2880
      2 C          15.3544   37.0439    9.7603 C.3     1  UNL1        0.0650
      3 C          12.8327   39.5209    9.5319 C.ar    1  UNL1        0.1542
      4 C          11.8624   39.8804    8.5918 C.ar    1  UNL1        0.0529
      5 C          10.6729   40.4952    8.9982 C.ar    1  UNL1        0.0534
      6 C          10.4609   40.7457   10.3629 C.ar    1  UNL1        0.0161
      7 C          11.4278   40.3863   11.3060 C.ar    1  UNL1        0.0190
      8 C          12.6124   39.7748   10.8892 C.ar    1  UNL1        0.0850
      9 C          14.8166   38.7796   11.4308 C.2     1  UNL1        0.2732
     10 O          14.0160   38.9077    9.1066 O.3     1  UNL1       -0.4618
     11 O          15.6608   38.4478   12.3061 O.2     1  UNL1       -0.2704
     12 N          13.5985   39.3993   11.8431 N.am    1  UNL1       -0.2783
     13 H          13.4389   39.5688   12.7997 H       1  UNL1        0.1551
     14 C           9.0323   42.1051    7.8640 C.2     1  UNL1        0.2264
     15 O           9.2868   43.0687    8.6340 O.2     1  UNL1       -0.2748
     16 N           9.7024   40.8450    8.0024 N.am    1  UNL1       -0.2838
     17 H           9.4723   40.1482    7.3460 H       1  UNL1        0.1549
     18 C           8.0114   42.2791    6.7915 C.3     1  UNL1        0.0900
     19 C           7.1952   43.5486    7.0052 C.3     1  UNL1        0.0359
     20 C           5.9579   43.2863    7.8006 C.ar    1  UNL1       -0.0217
     21 C           4.9508   44.2553    7.9001 C.ar    1  UNL1       -0.0043
     22 C           3.8089   44.0048    8.6670 C.ar    1  UNL1       -0.0003
     23 C           3.6742   42.7882    9.3424 C.ar    1  UNL1       -0.0000
     24 C           4.6823   41.8235    9.2533 C.ar    1  UNL1       -0.0003
     25 C           5.8243   42.0740    8.4861 C.ar    1  UNL1       -0.0043
     26 C          16.3337   39.3040    9.5672 C.2     1  UNL1        0.3623
     27 O          17.4763   38.7882    9.7149 O.2     1  UNL1       -0.2457
     28 O          16.2022   40.5650    8.9782 O.3     1  UNL1       -0.4458
     29 C          17.0321   42.6311    8.0913 C.3     1  UNL1        0.0513
     30 C          17.1552   41.5957    9.1895 C.3     1  UNL1        0.2087
@<TRIPOS>BOND
     1    29    30    1
     2    30    28    1
     3    26    28    1
     4     1    26    1
     5     1     2    1
     6     1    10    1
     7     1     9    1
     8     3    10    1
     9     4     5   ar
    10     5    16    1
    11    18    14    1
    12    18    19    1
    13    19    20    1
    14    21    22   ar
    15    23    24   ar
    16    25    20   ar
    17     6     7   ar
    18     8    12    1
    19     8     3   ar
    20    16    14   am
    21    12     9   am
    22    26    27    2
    23     3     4   ar
    24     5     6   ar
    25    14    15    2
    26    20    21   ar
    27    22    23   ar
    28    24    25   ar
    29     7     8   ar
    30     9    11    2
    31    16    17    1
    32    12    13    1
@<TRIPOS>MOLECULE
MolPort-035-706-965 CSSS03437789219 MCULE-5786311522 PubChem-91938290
 30 32 0 0 0
SMALL
GASTEIGER

@<TRIPOS>ATOM
      1 C          14.7009   38.5156   10.6687 C.3     1  UNL1        0.2880
      2 C          15.1540   38.6501   12.1143 C.3     1  UNL1        0.0650
      3 C          13.1507   40.2160    9.6483 C.ar    1  UNL1        0.1542
      4 C          11.8626   40.7572    9.5980 C.ar    1  UNL1        0.0529
      5 C          11.5602   41.7892    8.7027 C.ar    1  UNL1        0.0534
      6 C          12.5658   42.2797    7.8552 C.ar    1  UNL1        0.0161
      7 C          13.8551   41.7425    7.9036 C.ar    1  UNL1        0.0190
      8 C          14.1457   40.7112    8.7998 C.ar    1  UNL1        0.0850
      9 C          15.7666   39.1050    9.7669 C.2     1  UNL1        0.2732
     10 O          13.4341   39.1841   10.5494 O.3     1  UNL1       -0.4618
     11 O          16.9435   38.6549    9.8026 O.2     1  UNL1       -0.2704
     12 N          15.4572   40.1637    8.8606 N.am    1  UNL1       -0.2783
     13 H          16.1602   40.5193    8.2703 H       1  UNL1        0.1551
     14 C           9.6960   43.3303    9.5510 C.2     1  UNL1        0.2264
     15 O          10.4138   43.8876   10.4230 O.2     1  UNL1       -0.2748
     16 N          10.2276   42.3184    8.6853 N.am    1  UNL1       -0.2838
     17 H           9.6146   41.9490    8.0092 H       1  UNL1        0.1549
     18 C           8.2653   43.7290    9.4212 C.3     1  UNL1        0.0900
     19 C           7.5476   42.8823    8.3764 C.3     1  UNL1        0.0359
     20 C           6.1121   42.6638    8.7290 C.ar    1  UNL1       -0.0217
     21 C           5.6431   41.3871    9.0657 C.ar    1  UNL1       -0.0043
     22 C           4.2924   41.1935    9.3707 C.ar    1  UNL1       -0.0003
     23 C           3.4059   42.2737    9.3327 C.ar    1  UNL1       -0.0000
     24 C           3.8692   43.5468    8.9869 C.ar    1  UNL1       -0.0003
     25 C           5.2201   43.7405    8.6820 C.ar    1  UNL1       -0.0043
     26 C          14.5218   37.0604   10.3318 C.2     1  UNL1        0.3623
     27 O          14.4526   36.2050   11.2576 O.2     1  UNL1       -0.2457
     28 O          14.3695   36.6676    8.9988 O.3     1  UNL1       -0.4458
     29 C          15.1569   34.4375    8.6108 C.3     1  UNL1        0.0513
     30 C          15.3605   35.9099    8.3212 C.3     1  UNL1        0.2087
@<TRIPOS>BOND
     1    29    30    1
     2    30    28    1
     3    26    28    1
     4     1    26    1
     5     1     2    1
     6     1    10    1
     7     1     9    1
     8     3    10    1
     9     4     5   ar
    10     5    16    1
    11    18    14    1
    12    18    19    1
    13    19    20    1
    14    21    22   ar
    15    23    24   ar
    16    25    20   ar
    17     6     7   ar
    18     8    12    1
    19     8     3   ar
    20    16    14   am
    21    12     9   am
    22    26    27    2
    23     3     4   ar
    24     5     6   ar
    25    14    15    2
    26    20    21   ar
    27    22    23   ar
    28    24    25   ar
    29     7     8   ar
    30     9    11    2
    31    16    17    1
    32    12    13    1
@<TRIPOS>MOLECULE
MolPort-035-706-965 CSSS03437789219 MCULE-5786311522 PubChem-91938290
 30 32 0 0 0
SMALL
GASTEIGER

@<TRIPOS>ATOM
      1 C          14.6870   38.8520   10.1866 C.3     1  UNL1        0.2880
      2 C          14.5158   38.8904   11.6974 C.3     1  UNL1        0.0650
      3 C          13.3077   40.3453    8.7023 C.ar    1  UNL1        0.1542
      4 C          12.0503   40.6386    8.1661 C.ar    1  UNL1        0.0529
      5 C          11.8917   41.6979    7.2656 C.ar    1  UNL1        0.0534
      6 C          13.0094   42.4675    6.9070 C.ar    1  UNL1        0.0161
      7 C          14.2677   42.1785    7.4422 C.ar    1  UNL1        0.0190
      8 C          14.4152   41.1176    8.3387 C.ar    1  UNL1        0.0850
      9 C          15.8576   39.7359    9.8059 C.2     1  UNL1        0.2732
     10 O          13.4470   39.2819    9.6006 O.3     1  UNL1       -0.4618
     11 O          17.0005   39.5123   10.2883 O.2     1  UNL1       -0.2704
     12 N          15.6909   40.8211    8.8937 N.am    1  UNL1       -0.2783
     13 H          16.4687   41.3713    8.6455 H       1  UNL1        0.1551
     14 C           9.3390   41.8488    7.4419 C.2     1  UNL1        0.2264
     15 O           9.3008   41.5106    8.6545 O.2     1  UNL1       -0.2748
     16 N          10.5845   41.9673    6.7414 N.am    1  UNL1       -0.2838
     17 H          10.5373   42.2641    5.8039 H       1  UNL1        0.1549
     18 C           8.0633   42.1266    6.7221 C.3     1  UNL1        0.0900
     19 C           7.3894   43.3852    7.2564 C.3     1  UNL1        0.0359
     20 C           6.1048   43.0744    7.9533 C.ar    1  UNL1       -0.0217
     21 C           5.1328   44.0661    8.1406 C.ar    1  UNL1       -0.0043
     22 C           3.9454   43.7665    8.8152 C.ar    1  UNL1       -0.0003
     23 C           3.7296   42.4772    9.3106 C.ar    1  UNL1       -0.0000
     24 C           4.7023   41.4884    9.1342 C.ar    1  UNL1       -0.0003
     25 C           5.8899   41.7879    8.4594 C.ar    1  UNL1       -0.0043
     26 C          14.9737   37.4413    9.7494 C.2     1  UNL1        0.3623
     27 O          15.6492   37.2326    8.7037 O.2     1  UNL1       -0.2457
     28 O          14.5454   36.3677   10.5358 O.3     1  UNL1       -0.4458
     29 C          12.1678   36.0712   10.5941 C.3     1  UNL1        0.0513
     30 C          13.4930   35.5084   10.1245 C.3     1  UNL1        0.2087
@<TRIPOS>BOND
     1    29    30    1
     2    30    28    1
     3    26    28    1
     4     1    26    1
     5     1     2    1
     6     1    10    1
     7     1     9    1
     8     3    10    1
     9     4     5   ar
    10     5    16    1
    11    18    14    1
    12    18    19    1
    13    19    20    1
    14    21    22   ar
    15    23    24   ar
    16    25    20   ar
    17     6     7   ar
    18     8    12    1
    19     8     3   ar
    20    16    14   am
    21    12     9   am
    22    26    27    2
    23     3     4   ar
    24     5     6   ar
    25    14    15    2
    26    20    21   ar
    27    22    23   ar
    28    24    25   ar
    29     7     8   ar
    30     9    11    2
    31    16    17    1
    32    12    13    1
@<TRIPOS>MOLECULE
MolPort-035-706-965 CSSS03437789219 MCULE-5786311522 PubChem-91938290
 30 32 0 0 0
SMALL
GASTEIGER

@<TRIPOS>ATOM
      1 C          14.5610   38.6681   10.4668 C.3     1  UNL1        0.2880
      2 C          15.1783   38.6395   11.8564 C.3     1  UNL1        0.0650
      3 C          12.3868   39.8677   10.0549 C.ar    1  UNL1        0.1542
      4 C          11.0029   39.9009   10.2505 C.ar    1  UNL1        0.0529
      5 C          10.2299   40.9210    9.6848 C.ar    1  UNL1        0.0534
      6 C          10.8590   41.9153    8.9196 C.ar    1  UNL1        0.0161
      7 C          12.2425   41.8865    8.7232 C.ar    1  UNL1        0.0190
      8 C          13.0044   40.8626    9.2908 C.ar    1  UNL1        0.0850
      9 C          15.2040   39.7857    9.6705 C.2     1  UNL1        0.2732
     10 O          13.1430   38.8395   10.6277 O.3     1  UNL1       -0.4618
     11 O          16.4520   39.7977    9.4937 O.2     1  UNL1       -0.2704
     12 N          14.4138   40.8297    9.1019 N.am    1  UNL1       -0.2783
     13 H          14.8499   41.5359    8.5724 H       1  UNL1        0.1551
     14 C           8.0901   41.7706   10.8116 C.2     1  UNL1        0.2264
     15 O           8.6758   42.6590   11.4852 O.2     1  UNL1       -0.2748
     16 N           8.8141   40.9202    9.9123 N.am    1  UNL1       -0.2838
     17 H           8.2847   40.2686    9.3982 H       1  UNL1        0.1549
     18 C           6.6162   41.5991   10.9566 C.3     1  UNL1        0.0900
     19 C           5.9658   41.2505    9.6229 C.3     1  UNL1        0.0359
     20 C           5.4759   42.4680    8.9086 C.ar    1  UNL1       -0.0217
     21 C           6.2704   43.1013    7.9437 C.ar    1  UNL1       -0.0043
     22 C           5.8083   44.2533    7.3002 C.ar    1  UNL1       -0.0003
     23 C           4.5544   44.7794    7.6247 C.ar    1  UNL1       -0.0000
     24 C           3.7639   44.1554    8.5945 C.ar    1  UNL1       -0.0003
     25 C           4.2259   43.0031    9.2381 C.ar    1  UNL1       -0.0043
     26 C          14.8218   37.3582    9.7742 C.2     1  UNL1        0.3623
     27 O          15.4492   37.3405    8.6791 O.2     1  UNL1       -0.2457
     28 O          14.4241   36.1608   10.3763 O.3     1  UNL1       -0.4458
     29 C          12.0667   35.7584   10.5339 C.3     1  UNL1        0.0513
     30 C          13.3643   35.3736    9.8545 C.3     1  UNL1        0.2087
@<TRIPOS>BOND
     1    29    30    1
     2    30    28    1
     3    26    28    1
     4     1    26    1
     5     1     2    1
     6     1    10    1
     7     1     9    1
     8     3    10    1
     9     4     5   ar
    10     5    16    1
    11    18    14    1
    12    18    19    1
    13    19    20    1
    14    21    22   ar
    15    23    24   ar
    16    25    20   ar
    17     6     7   ar
    18     8    12    1
    19     8     3   ar
    20    16    14   am
    21    12     9   am
    22    26    27    2
    23     3     4   ar
    24     5     6   ar
    25    14    15    2
    26    20    21   ar
    27    22    23   ar
    28    24    25   ar
    29     7     8   ar
    30     9    11    2
    31    16    17    1
    32    12    13    1
@<TRIPOS>MOLECULE
MolPort-035-706-965 CSSS03437789219 MCULE-5786311522 PubChem-91938290
 30 32 0 0 0
SMALL
GASTEIGER

@<TRIPOS>ATOM
      1 C          12.6150   40.1913    8.5125 C.3     1  UNL1        0.2880
      2 C          13.0141   38.7914    8.0721 C.3     1  UNL1        0.0650
      3 C          10.2879   40.6560    9.3517 C.ar    1  UNL1        0.1542
      4 C           8.9284   40.7802    9.0501 C.ar    1  UNL1        0.0529
      5 C           8.0088   41.1279   10.0459 C.ar    1  UNL1        0.0534
      6 C           8.4648   41.3487   11.3548 C.ar    1  UNL1        0.0161
      7 C           9.8228   41.2239   11.6607 C.ar    1  UNL1        0.0190
      8 C          10.7325   40.8782   10.6587 C.ar    1  UNL1        0.0850
      9 C          13.0571   40.3956    9.9475 C.2     1  UNL1        0.2732
     10 O          11.1925   40.3082    8.3429 O.3     1  UNL1       -0.4618
     11 O          14.2723   40.2699   10.2577 O.2     1  UNL1       -0.2704
     12 N          12.1153   40.7420   10.9629 N.am    1  UNL1       -0.2783
     13 H          12.4269   40.8884   11.8852 H       1  UNL1        0.1551
     14 C           5.5006   41.0675   10.5703 C.2     1  UNL1        0.2264
     15 O           5.6588   40.8193   11.7949 O.2     1  UNL1       -0.2748
     16 N           6.6231   41.2417    9.6953 N.am    1  UNL1       -0.2838
     17 H           6.4216   41.4620    8.7571 H       1  UNL1        0.1549
     18 C           4.1188   41.1777   10.0216 C.3     1  UNL1        0.0900
     19 C           3.5552   42.5802   10.2192 C.3     1  UNL1        0.0359
     20 C           4.0804   43.5386    9.2003 C.ar    1  UNL1       -0.0217
     21 C           3.2057   44.3132    8.4269 C.ar    1  UNL1       -0.0043
     22 C           3.7108   45.1888    7.4610 C.ar    1  UNL1       -0.0003
     23 C           5.0909   45.2871    7.2606 C.ar    1  UNL1       -0.0000
     24 C           5.9655   44.5078    8.0239 C.ar    1  UNL1       -0.0003
     25 C           5.4604   43.6320    8.9900 C.ar    1  UNL1       -0.0043
     26 C          13.2988   41.2069    7.6382 C.2     1  UNL1        0.3623
     27 O          12.8888   41.3995    6.4600 O.2     1  UNL1       -0.2457
     28 O          14.3448   41.9781    8.1536 O.3     1  UNL1       -0.4458
     29 C          15.3057   43.8077    6.9398 C.3     1  UNL1        0.0513
     30 C          15.4577   42.3607    7.3597 C.3     1  UNL1        0.2087
@<TRIPOS>BOND
     1    29    30    1
     2    30    28    1
     3    26    28    1
     4     1    26    1
     5     1     2    1
     6     1    10    1
     7     1     9    1
     8     3    10    1
     9     4     5   ar
    10     5    16    1
    11    18    14    1
    12    18    19    1
    13    19    20    1
    14    21    22   ar
    15    23    24   ar
    16    25    20   ar
    17     6     7   ar
    18     8    12    1
    19     8     3   ar
    20    16    14   am
    21    12     9   am
    22    26    27    2
    23     3     4   ar
    24     5     6   ar
    25    14    15    2
    26    20    21   ar
    27    22    23   ar
    28    24    25   ar
    29     7     8   ar
    30     9    11    2
    31    16    17    1
    32    12    13    1
@<TRIPOS>MOLECULE
MolPort-035-706-965 CSSS03437789219 MCULE-5786311522 PubChem-91938290
 30 32 0 0 0
SMALL
GASTEIGER

@<TRIPOS>ATOM
      1 C           6.4099   42.6272    7.6933 C.3     1  UNL1        0.2880
      2 C           6.0771   43.0730    6.2778 C.3     1  UNL1        0.0650
      3 C           8.7893   42.6385    8.5143 C.ar    1  UNL1        0.1542
      4 C          10.0628   42.0657    8.4467 C.ar    1  UNL1        0.0529
      5 C          11.0970   42.5348    9.2644 C.ar    1  UNL1        0.0534
      6 C          10.8440   43.5910   10.1535 C.ar    1  UNL1        0.0161
      7 C           9.5727   44.1674   10.2228 C.ar    1  UNL1        0.0190
      8 C           8.5470   43.6901    9.4034 C.ar    1  UNL1        0.0850
      9 C           6.1929   43.7940    8.6357 C.2     1  UNL1        0.2732
     10 O           7.7677   42.1558    7.6894 O.3     1  UNL1       -0.4618
     11 O           5.0625   44.3474    8.7053 O.2     1  UNL1       -0.2704
     12 N           7.2521   44.2759    9.4624 N.am    1  UNL1       -0.2783
     13 H           7.0844   45.0230   10.0812 H       1  UNL1        0.1551
     14 C          13.3810   42.1761    8.1578 C.2     1  UNL1        0.2264
     15 O          13.1925   43.0341    7.2553 O.2     1  UNL1       -0.2748
     16 N          12.3892   41.9218    9.1616 N.am    1  UNL1       -0.2838
     17 H          12.6191   41.2580    9.8513 H       1  UNL1        0.1549
     18 C          14.6589   41.4085    8.1782 C.3     1  UNL1        0.0900
     19 C          14.4054   39.9168    8.3626 C.3     1  UNL1        0.0359
     20 C          14.8343   39.4431    9.7132 C.ar    1  UNL1       -0.0217
     21 C          13.8887   39.1663   10.7094 C.ar    1  UNL1       -0.0043
     22 C          14.3060   38.7461   11.9759 C.ar    1  UNL1       -0.0003
     23 C          15.6695   38.6086   12.2522 C.ar    1  UNL1       -0.0000
     24 C          16.6157   38.8940   11.2632 C.ar    1  UNL1       -0.0003
     25 C          16.1984   39.3142    9.9964 C.ar    1  UNL1       -0.0043
     26 C           5.4991   41.4979    8.0914 C.2     1  UNL1        0.3623
     27 O           5.4090   40.4749    7.3574 O.2     1  UNL1       -0.2457
     28 O           4.8043   41.5575    9.3031 O.3     1  UNL1       -0.4458
     29 C           2.8896   42.0607   10.6539 C.3     1  UNL1        0.0513
     30 C           3.3906   41.4447    9.3644 C.3     1  UNL1        0.2087
@<TRIPOS>BOND
     1    29    30    1
     2    30    28    1
     3    26    28    1
     4     1    26    1
     5     1     2    1
     6     1    10    1
     7     1     9    1
     8     3    10    1
     9     4     5   ar
    10     5    16    1
    11    18    14    1
    12    18    19    1
    13    19    20    1
    14    21    22   ar
    15    23    24   ar
    16    25    20   ar
    17     6     7   ar
    18     8    12    1
    19     8     3   ar
    20    16    14   am
    21    12     9   am
    22    26    27    2
    23     3     4   ar
    24     5     6   ar
    25    14    15    2
    26    20    21   ar
    27    22    23   ar
    28    24    25   ar
    29     7     8   ar
    30     9    11    2
    31    16    17    1
    32    12    13    1
