@<TRIPOS>MOLECULE
Molport-020-292-445 MCULE-7249541953 PubChem-110264913
 31 34 0 0 0
SMALL
GASTEIGER

@<TRIPOS>ATOM
      1 C          11.9437   41.5267    7.0138 C.ar    1  UNL1        0.0517
      2 C          12.3823   40.2750    7.4523 C.ar    1  UNL1        0.0294
      3 C          11.6766   39.6051    8.4551 C.ar    1  UNL1        0.0608
      4 C          10.1172   41.3923    8.5917 C.ar    1  UNL1        0.0602
      5 C          10.7983   42.0887    7.5918 C.ar    1  UNL1        0.0294
      6 C           8.9015   41.9815    9.2102 C.3     1  UNL1        0.0521
      7 N          10.5656   40.1755    9.0001 N.ar    1  UNL1       -0.2539
      8 C          12.1519   38.2685    8.9194 C.3     1  UNL1        0.0563
      9 C          11.0879   37.5844    9.7667 C.3     1  UNL1        0.0087
     10 C          11.6080   36.2368   10.2389 C.3     1  UNL1        0.0178
     11 C          12.9142   36.4300   11.0148 C.3     1  UNL1        0.0725
     12 C          13.4557   38.4064    9.7163 C.3     1  UNL1        0.0784
     13 N          13.9463   37.1162   10.2209 N.3     1  UNL1       -0.2647
     14 C          14.3711   36.2777    9.1017 C.3     1  UNL1        0.1587
     15 C          15.8053   35.8822    9.2627 C.2     1  UNL1        0.2420
     16 C          18.2267   36.4584    9.5775 C.3     1  UNL1        0.0934
     17 C          19.1517   37.6624    9.7406 C.3     1  UNL1        0.0216
     18 C          18.6110   38.5846   10.8306 C.3     1  UNL1        0.0035
     19 C          17.1663   39.0394   10.5706 C.3     1  UNL1        0.0216
     20 C          16.4856   38.2981    9.4164 C.3     1  UNL1        0.0934
     21 N          16.8267   36.8746    9.4446 N.am    1  UNL1       -0.2784
     22 O          16.1063   34.6580    9.2469 O.2     1  UNL1       -0.2734
     23 N          12.6854   42.1942    5.9830 N.pl3   1  UNL1       -0.2981
     24 H          12.4067   42.0095    5.0570 H       1  UNL1        0.1536
     25 C          14.8294   41.5040    7.8025 C.3     1  UNL1        0.0340
     26 C          14.8336   42.7760    7.0262 C.ar    1  UNL1        0.0099
     27 C          13.7879   43.1010    6.1459 C.ar    1  UNL1        0.1281
     28 C          14.8681   45.1511    5.5940 C.ar    1  UNL1        0.1003
     29 C          15.9223   44.8590    6.4597 C.ar    1  UNL1        0.0204
     30 C          15.9006   43.6635    7.1778 C.ar    1  UNL1        0.0001
     31 N          13.8361   44.2764    5.4573 N.ar    1  UNL1       -0.2294
@<TRIPOS>BOND
     1    25    26    1
     2    27    31   ar
     3    27    23    1
     4    28    29   ar
     5    30    26   ar
     6     2     3   ar
     7     4     7   ar
     8     5     1   ar
     9     6     4    1
    10     8     3    1
    11     8     9    1
    12     9    10    1
    13    10    11    1
    14    11    13    1
    15    12    13    1
    16    12     8    1
    17    14    13    1
    18    14    15    1
    19    15    21   am
    20    16    21    1
    21    16    17    1
    22    17    18    1
    23    18    19    1
    24    19    20    1
    25    20    21    1
    26    23     1    1
    27    26    27   ar
    28    28    31   ar
    29    29    30   ar
    30     1     2   ar
    31     3     7   ar
    32     4     5   ar
    33    15    22    2
    34    23    24    1
@<TRIPOS>MOLECULE
Molport-020-292-445 MCULE-7249541953 PubChem-110264913
 31 34 0 0 0
SMALL
GASTEIGER

@<TRIPOS>ATOM
      1 C          12.1671   41.4011    7.2597 C.ar    1  UNL1        0.0517
      2 C          12.6198   40.1308    7.6242 C.ar    1  UNL1        0.0294
      3 C          12.0077   39.4537    8.6823 C.ar    1  UNL1        0.0608
      4 C          10.5137   41.2702    9.0185 C.ar    1  UNL1        0.0602
      5 C          11.1022   41.9742    7.9665 C.ar    1  UNL1        0.0294
      6 C           9.3839   41.8711    9.7734 C.3     1  UNL1        0.0521
      7 N          10.9737   40.0353    9.3527 N.ar    1  UNL1       -0.2539
      8 C          12.4975   38.0972    9.0668 C.3     1  UNL1        0.0563
      9 C          11.4714   37.3814    9.9343 C.3     1  UNL1        0.0087
     10 C          12.0063   36.0134   10.3242 C.3     1  UNL1        0.0178
     11 C          13.3488   36.1695   11.0445 C.3     1  UNL1        0.0725
     12 C          13.8383   38.1971    9.8058 C.3     1  UNL1        0.0784
     13 N          14.3456   36.8853   10.2319 N.3     1  UNL1       -0.2647
     14 C          14.7125   36.0934    9.0596 C.3     1  UNL1        0.1587
     15 C          16.2001   36.0552    8.9020 C.2     1  UNL1        0.2420
     16 C          18.2613   35.5135    7.5782 C.3     1  UNL1        0.0934
     17 C          18.6931   34.9371    6.2316 C.3     1  UNL1        0.0216
     18 C          17.9433   35.6423    5.1042 C.3     1  UNL1        0.0035
     19 C          16.4163   35.5716    5.2620 C.3     1  UNL1        0.0216
     20 C          15.9621   35.0275    6.6193 C.3     1  UNL1        0.0934
     21 N          16.8001   35.5597    7.6955 N.am    1  UNL1       -0.2784
     22 O          16.9246   36.4758    9.8441 O.2     1  UNL1       -0.2734
     23 N          12.8120   42.0756    6.1701 N.pl3   1  UNL1       -0.2981
     24 H          12.4903   41.8506    5.2672 H       1  UNL1        0.1536
     25 C          15.0764   41.5616    7.8998 C.3     1  UNL1        0.0340
     26 C          14.9764   42.8023    7.0802 C.ar    1  UNL1        0.0099
     27 C          13.8730   43.0415    6.2441 C.ar    1  UNL1        0.1281
     28 C          14.8174   45.1206    5.5658 C.ar    1  UNL1        0.1003
     29 C          15.9269   44.9140    6.3859 C.ar    1  UNL1        0.0204
     30 C          16.0025   43.7468    7.1456 C.ar    1  UNL1        0.0001
     31 N          13.8263   44.1912    5.5132 N.ar    1  UNL1       -0.2294
@<TRIPOS>BOND
     1    25    26    1
     2    27    31   ar
     3    27    23    1
     4    28    29   ar
     5    30    26   ar
     6     2     3   ar
     7     4     7   ar
     8     5     1   ar
     9     6     4    1
    10     8     3    1
    11     8     9    1
    12     9    10    1
    13    10    11    1
    14    11    13    1
    15    12    13    1
    16    12     8    1
    17    14    13    1
    18    14    15    1
    19    15    21   am
    20    16    21    1
    21    16    17    1
    22    17    18    1
    23    18    19    1
    24    19    20    1
    25    20    21    1
    26    23     1    1
    27    26    27   ar
    28    28    31   ar
    29    29    30   ar
    30     1     2   ar
    31     3     7   ar
    32     4     5   ar
    33    15    22    2
    34    23    24    1
@<TRIPOS>MOLECULE
Molport-020-292-445 MCULE-7249541953 PubChem-110264913
 31 34 0 0 0
SMALL
GASTEIGER

@<TRIPOS>ATOM
      1 C          14.3441   40.8918    8.9550 C.ar    1  UNL1        0.0517
      2 C          13.0837   41.4938    8.9775 C.ar    1  UNL1        0.0294
      3 C          12.1271   41.0657    9.9017 C.ar    1  UNL1        0.0608
      4 C          13.6465   39.4614   10.7747 C.ar    1  UNL1        0.0602
      5 C          14.6254   39.8646    9.8649 C.ar    1  UNL1        0.0294
      6 C          13.9367   38.3725   11.7430 C.3     1  UNL1        0.0521
      7 N          12.4278   40.0641   10.7752 N.ar    1  UNL1       -0.2539
      8 C          10.7822   41.7129    9.9191 C.3     1  UNL1        0.0563
      9 C          10.8868   43.1567   10.3906 C.3     1  UNL1        0.0087
     10 C           9.5015   43.7813   10.4154 C.3     1  UNL1        0.0178
     11 C           8.5782   42.9554   11.3158 C.3     1  UNL1        0.0725
     12 C           9.8182   40.9300   10.8201 C.3     1  UNL1        0.0784
     13 N           8.4872   41.5487   10.8924 N.3     1  UNL1       -0.2647
     14 C           7.8250   41.4484    9.5934 C.3     1  UNL1        0.1587
     15 C           6.3657   41.7512    9.7282 C.2     1  UNL1        0.2420
     16 C           4.3704   43.2101    9.2986 C.3     1  UNL1        0.0934
     17 C           3.9762   44.5132    8.6068 C.3     1  UNL1        0.0216
     18 C           4.5060   44.5181    7.1750 C.3     1  UNL1        0.0035
     19 C           6.0249   44.2977    7.0958 C.3     1  UNL1        0.0216
     20 C           6.6573   43.8834    8.4274 C.3     1  UNL1        0.0934
     21 N           5.7998   42.9277    9.1309 N.am    1  UNL1       -0.2784
     22 O           5.6326   40.9498   10.3683 O.2     1  UNL1       -0.2734
     23 N          15.3088   41.3491    7.9967 N.pl3   1  UNL1       -0.2981
     24 H          16.1009   40.7784    7.8701 H       1  UNL1        0.1536
     25 C          17.3807   43.3494    8.2964 C.3     1  UNL1        0.0340
     26 C          16.2526   43.5208    7.3378 C.ar    1  UNL1        0.0099
     27 C          15.2525   42.5437    7.2004 C.ar    1  UNL1        0.1281
     28 C          14.1646   43.8669    5.5450 C.ar    1  UNL1        0.1003
     29 C          15.1413   44.8567    5.6569 C.ar    1  UNL1        0.0204
     30 C          16.1894   44.6783    6.5597 C.ar    1  UNL1        0.0001
     31 N          14.2403   42.7453    6.3099 N.ar    1  UNL1       -0.2294
@<TRIPOS>BOND
     1    25    26    1
     2    27    31   ar
     3    27    23    1
     4    28    29   ar
     5    30    26   ar
     6     2     3   ar
     7     4     7   ar
     8     5     1   ar
     9     6     4    1
    10     8     3    1
    11     8     9    1
    12     9    10    1
    13    10    11    1
    14    11    13    1
    15    12    13    1
    16    12     8    1
    17    14    13    1
    18    14    15    1
    19    15    21   am
    20    16    21    1
    21    16    17    1
    22    17    18    1
    23    18    19    1
    24    19    20    1
    25    20    21    1
    26    23     1    1
    27    26    27   ar
    28    28    31   ar
    29    29    30   ar
    30     1     2   ar
    31     3     7   ar
    32     4     5   ar
    33    15    22    2
    34    23    24    1
@<TRIPOS>MOLECULE
Molport-020-292-445 MCULE-7249541953 PubChem-110264913
 31 34 0 0 0
SMALL
GASTEIGER

@<TRIPOS>ATOM
      1 C          13.7147   41.0830    8.6942 C.ar    1  UNL1        0.0517
      2 C          12.4660   41.5420    9.1205 C.ar    1  UNL1        0.0294
      3 C          11.9000   41.0268   10.2895 C.ar    1  UNL1        0.0608
      4 C          13.7838   39.6162   10.6145 C.ar    1  UNL1        0.0602
      5 C          14.3782   40.1094    9.4517 C.ar    1  UNL1        0.0294
      6 C          14.4808   38.5832   11.4236 C.3     1  UNL1        0.0521
      7 N          12.5676   40.0801   11.0069 N.ar    1  UNL1       -0.2539
      8 C          10.5650   41.5213   10.7382 C.3     1  UNL1        0.0563
      9 C          10.3140   41.1462   12.1923 C.3     1  UNL1        0.0087
     10 C           8.9419   41.6461   12.6130 C.3     1  UNL1        0.0178
     11 C           7.8726   41.0642   11.6838 C.3     1  UNL1        0.0725
     12 C           9.4524   40.9560    9.8458 C.3     1  UNL1        0.0784
     13 N           8.1145   41.3922   10.2696 N.3     1  UNL1       -0.2647
     14 C           7.9704   42.8295   10.0469 C.3     1  UNL1        0.1587
     15 C           6.7349   43.1117    9.2511 C.2     1  UNL1        0.2420
     16 C           4.2999   42.7548    8.7637 C.3     1  UNL1        0.0934
     17 C           3.0903   41.9659    9.2602 C.3     1  UNL1        0.0216
     18 C           2.9406   42.1460   10.7688 C.3     1  UNL1        0.0035
     19 C           4.2047   41.7526   11.5492 C.3     1  UNL1        0.0216
     20 C           5.4225   41.4927   10.6581 C.3     1  UNL1        0.0934
     21 N           5.4892   42.4758    9.5753 N.am    1  UNL1       -0.2784
     22 O           6.7996   43.9279    8.2924 O.2     1  UNL1       -0.2734
     23 N          14.2745   41.6276    7.4908 N.pl3   1  UNL1       -0.2981
     24 H          13.8164   41.3916    6.6519 H       1  UNL1        0.1536
     25 C          14.1921   43.8690    5.6597 C.3     1  UNL1        0.0340
     26 C          15.3973   43.5678    6.4828 C.ar    1  UNL1        0.0099
     27 C          15.4265   42.4774    7.3683 C.ar    1  UNL1        0.1281
     28 C          17.6549   43.0313    8.0023 C.ar    1  UNL1        0.1003
     29 C          17.6591   44.1221    7.1326 C.ar    1  UNL1        0.0204
     30 C          16.5216   44.3879    6.3705 C.ar    1  UNL1        0.0001
     31 N          16.5520   42.2420    8.1003 N.ar    1  UNL1       -0.2294
@<TRIPOS>BOND
     1    25    26    1
     2    27    31   ar
     3    27    23    1
     4    28    29   ar
     5    30    26   ar
     6     2     3   ar
     7     4     7   ar
     8     5     1   ar
     9     6     4    1
    10     8     3    1
    11     8     9    1
    12     9    10    1
    13    10    11    1
    14    11    13    1
    15    12    13    1
    16    12     8    1
    17    14    13    1
    18    14    15    1
    19    15    21   am
    20    16    21    1
    21    16    17    1
    22    17    18    1
    23    18    19    1
    24    19    20    1
    25    20    21    1
    26    23     1    1
    27    26    27   ar
    28    28    31   ar
    29    29    30   ar
    30     1     2   ar
    31     3     7   ar
    32     4     5   ar
    33    15    22    2
    34    23    24    1
@<TRIPOS>MOLECULE
Molport-020-292-445 MCULE-7249541953 PubChem-110264913
 31 34 0 0 0
SMALL
GASTEIGER

@<TRIPOS>ATOM
      1 C          13.0690   41.6525    7.9526 C.ar    1  UNL1        0.0517
      2 C          13.3240   40.2873    8.1038 C.ar    1  UNL1        0.0294
      3 C          12.5646   39.5356    9.0042 C.ar    1  UNL1        0.0608
      4 C          11.3118   41.4637    9.6021 C.ar    1  UNL1        0.0602
      5 C          12.0511   42.2441    8.7115 C.ar    1  UNL1        0.0294
      6 C          10.2305   42.0835   10.4109 C.3     1  UNL1        0.0521
      7 N          11.5806   40.1372    9.7299 N.ar    1  UNL1       -0.2539
      8 C          12.8435   38.0777    9.1612 C.3     1  UNL1        0.0563
      9 C          11.7367   37.4017    9.9588 C.3     1  UNL1        0.0087
     10 C          12.0584   35.9250   10.1173 C.3     1  UNL1        0.0178
     11 C          13.4241   35.7630   10.7913 C.3     1  UNL1        0.0725
     12 C          14.1991   37.8583    9.8455 C.3     1  UNL1        0.0784
     13 N          14.5031   36.4350   10.0494 N.3     1  UNL1       -0.2647
     14 C          14.7156   35.7857    8.7573 C.3     1  UNL1        0.1587
     15 C          15.8649   34.8307    8.8374 C.2     1  UNL1        0.2420
     16 C          18.3125   34.3478    9.1024 C.3     1  UNL1        0.0934
     17 C          19.6487   35.0558    9.3152 C.3     1  UNL1        0.0216
     18 C          19.5363   36.0290   10.4861 C.3     1  UNL1        0.0035
     19 C          18.4010   37.0500   10.3118 C.3     1  UNL1        0.0216
     20 C          17.4714   36.7423    9.1344 C.3     1  UNL1        0.0934
     21 N          17.2030   35.3055    9.0505 N.am    1  UNL1       -0.2784
     22 O          15.6408   33.5952    8.7250 O.2     1  UNL1       -0.2734
     23 N          13.8623   42.4023    7.0218 N.pl3   1  UNL1       -0.2981
     24 H          13.4224   42.6523    6.1772 H       1  UNL1        0.1536
     25 C          14.8030   44.7051    5.5399 C.3     1  UNL1        0.0340
     26 C          15.6915   43.9469    6.4653 C.ar    1  UNL1        0.0099
     27 C          15.2246   42.8308    7.1796 C.ar    1  UNL1        0.1281
     28 C          17.3683   42.5547    8.1811 C.ar    1  UNL1        0.1003
     29 C          17.8637   43.6587    7.4868 C.ar    1  UNL1        0.0204
     30 C          17.0169   44.3556    6.6252 C.ar    1  UNL1        0.0001
     31 N          16.0750   42.1692    8.0145 N.ar    1  UNL1       -0.2294
@<TRIPOS>BOND
     1    25    26    1
     2    27    31   ar
     3    27    23    1
     4    28    29   ar
     5    30    26   ar
     6     2     3   ar
     7     4     7   ar
     8     5     1   ar
     9     6     4    1
    10     8     3    1
    11     8     9    1
    12     9    10    1
    13    10    11    1
    14    11    13    1
    15    12    13    1
    16    12     8    1
    17    14    13    1
    18    14    15    1
    19    15    21   am
    20    16    21    1
    21    16    17    1
    22    17    18    1
    23    18    19    1
    24    19    20    1
    25    20    21    1
    26    23     1    1
    27    26    27   ar
    28    28    31   ar
    29    29    30   ar
    30     1     2   ar
    31     3     7   ar
    32     4     5   ar
    33    15    22    2
    34    23    24    1
@<TRIPOS>MOLECULE
Molport-020-292-445 MCULE-7249541953 PubChem-110264913
 31 34 0 0 0
SMALL
GASTEIGER

@<TRIPOS>ATOM
      1 C          14.5617   40.8484    8.9509 C.ar    1  UNL1        0.0517
      2 C          13.2157   41.0709    8.6503 C.ar    1  UNL1        0.0294
      3 C          12.2229   40.4841    9.4392 C.ar    1  UNL1        0.0608
      4 C          13.8739   39.4654   10.8106 C.ar    1  UNL1        0.0602
      5 C          14.8910   40.0363   10.0436 C.ar    1  UNL1        0.0294
      6 C          14.2148   38.6026   11.9711 C.3     1  UNL1        0.0521
      7 N          12.5719   39.6982   10.4962 N.ar    1  UNL1       -0.2539
      8 C          10.7868   40.7255    9.1113 C.3     1  UNL1        0.0563
      9 C          10.2702   39.6659    8.1477 C.3     1  UNL1        0.0087
     10 C           8.8138   39.9495    7.8191 C.3     1  UNL1        0.0178
     11 C           8.6804   41.3598    7.2370 C.3     1  UNL1        0.0725
     12 C          10.5983   42.1246    8.5107 C.3     1  UNL1        0.0784
     13 N           9.2016   42.3961    8.1430 N.3     1  UNL1       -0.2647
     14 C           8.3808   42.4793    9.3495 C.3     1  UNL1        0.1587
     15 C           7.0984   43.1933    9.0584 C.2     1  UNL1        0.2420
     16 C           4.5934   43.3262    9.0992 C.3     1  UNL1        0.0934
     17 C           3.3669   42.5325    9.5438 C.3     1  UNL1        0.0216
     18 C           3.5403   42.0834   10.9927 C.3     1  UNL1        0.0035
     19 C           4.8256   41.2723   11.2205 C.3     1  UNL1        0.0216
     20 C           5.7800   41.2816   10.0231 C.3     1  UNL1        0.0934
     21 N           5.8350   42.6133    9.4170 N.am    1  UNL1       -0.2784
     22 O           7.1418   44.3227    8.4998 O.2     1  UNL1       -0.2734
     23 N          15.5622   41.4622    8.1260 N.pl3   1  UNL1       -0.2981
     24 H          16.4538   41.0450    8.1400 H       1  UNL1        0.1536
     25 C          17.5377   43.5752    8.2541 C.3     1  UNL1        0.0340
     26 C          16.3660   43.6464    7.3358 C.ar    1  UNL1        0.0099
     27 C          15.4134   42.6152    7.2818 C.ar    1  UNL1        0.1281
     28 C          14.1952   43.8061    5.6167 C.ar    1  UNL1        0.1003
     29 C          15.1229   44.8476    5.6457 C.ar    1  UNL1        0.0204
     30 C          16.2129   44.7629    6.5117 C.ar    1  UNL1        0.0001
     31 N          14.3584   42.7254    6.4256 N.ar    1  UNL1       -0.2294
@<TRIPOS>BOND
     1    25    26    1
     2    27    31   ar
     3    27    23    1
     4    28    29   ar
     5    30    26   ar
     6     2     3   ar
     7     4     7   ar
     8     5     1   ar
     9     6     4    1
    10     8     3    1
    11     8     9    1
    12     9    10    1
    13    10    11    1
    14    11    13    1
    15    12    13    1
    16    12     8    1
    17    14    13    1
    18    14    15    1
    19    15    21   am
    20    16    21    1
    21    16    17    1
    22    17    18    1
    23    18    19    1
    24    19    20    1
    25    20    21    1
    26    23     1    1
    27    26    27   ar
    28    28    31   ar
    29    29    30   ar
    30     1     2   ar
    31     3     7   ar
    32     4     5   ar
    33    15    22    2
    34    23    24    1
@<TRIPOS>MOLECULE
Molport-020-292-445 MCULE-7249541953 PubChem-110264913
 31 34 0 0 0
SMALL
GASTEIGER

@<TRIPOS>ATOM
      1 C          13.7092   41.0518    8.7129 C.ar    1  UNL1        0.0517
      2 C          12.4409   41.6041    8.9069 C.ar    1  UNL1        0.0294
      3 C          11.6910   41.2419   10.0290 C.ar    1  UNL1        0.0608
      4 C          13.4311   39.8002   10.7624 C.ar    1  UNL1        0.0602
      5 C          14.2069   40.1401    9.6528 C.ar    1  UNL1        0.0294
      6 C          13.9515   38.8339   11.7639 C.3     1  UNL1        0.0521
      7 N          12.1998   40.3525   10.9271 N.ar    1  UNL1       -0.2539
      8 C          10.3361   41.8354   10.2290 C.3     1  UNL1        0.0563
      9 C          10.3757   43.3443   10.0300 C.3     1  UNL1        0.0087
     10 C           8.9881   43.9203   10.2586 C.3     1  UNL1        0.0178
     11 C           8.4971   43.5450   11.6598 C.3     1  UNL1        0.0725
     12 C           9.8009   41.4994   11.6271 C.3     1  UNL1        0.0784
     13 N           8.4794   42.0900   11.8810 N.3     1  UNL1       -0.2647
     14 C           7.4817   41.4551   11.0221 C.3     1  UNL1        0.1587
     15 C           7.9622   41.4185    9.6054 C.2     1  UNL1        0.2420
     16 C           7.7604   42.0798    7.1937 C.3     1  UNL1        0.0934
     17 C           6.8872   42.9120    6.2573 C.3     1  UNL1        0.0216
     18 C           6.6963   44.3113    6.8373 C.3     1  UNL1        0.0035
     19 C           6.1114   44.2978    8.2584 C.3     1  UNL1        0.0216
     20 C           6.0633   42.9043    8.8914 C.3     1  UNL1        0.0934
     21 N           7.2797   42.1525    8.5774 N.am    1  UNL1       -0.2784
     22 O           8.9864   40.7388    9.3256 O.2     1  UNL1       -0.2734
     23 N          14.4593   41.4397    7.5532 N.pl3   1  UNL1       -0.2981
     24 H          14.1890   41.0263    6.7016 H       1  UNL1        0.1536
     25 C          14.2954   43.7218    5.7788 C.3     1  UNL1        0.0340
     26 C          15.4906   43.4723    6.6333 C.ar    1  UNL1        0.0099
     27 C          15.5596   42.3616    7.4909 C.ar    1  UNL1        0.1281
     28 C          17.7282   43.0332    8.2126 C.ar    1  UNL1        0.1003
     29 C          17.6919   44.1459    7.3718 C.ar    1  UNL1        0.0204
     30 C          16.5647   44.3626    6.5795 C.ar    1  UNL1        0.0001
     31 N          16.6739   42.1754    8.2535 N.ar    1  UNL1       -0.2294
@<TRIPOS>BOND
     1    25    26    1
     2    27    31   ar
     3    27    23    1
     4    28    29   ar
     5    30    26   ar
     6     2     3   ar
     7     4     7   ar
     8     5     1   ar
     9     6     4    1
    10     8     3    1
    11     8     9    1
    12     9    10    1
    13    10    11    1
    14    11    13    1
    15    12    13    1
    16    12     8    1
    17    14    13    1
    18    14    15    1
    19    15    21   am
    20    16    21    1
    21    16    17    1
    22    17    18    1
    23    18    19    1
    24    19    20    1
    25    20    21    1
    26    23     1    1
    27    26    27   ar
    28    28    31   ar
    29    29    30   ar
    30     1     2   ar
    31     3     7   ar
    32     4     5   ar
    33    15    22    2
    34    23    24    1
@<TRIPOS>MOLECULE
Molport-020-292-445 MCULE-7249541953 PubChem-110264913
 31 34 0 0 0
SMALL
GASTEIGER

@<TRIPOS>ATOM
      1 C          13.1145   41.8241    7.2472 C.ar    1  UNL1        0.0517
      2 C          13.3344   40.6443    7.9623 C.ar    1  UNL1        0.0294
      3 C          12.5436   39.5210    7.7068 C.ar    1  UNL1        0.0608
      4 C          11.3278   40.7171    6.0528 C.ar    1  UNL1        0.0602
      5 C          12.0994   41.8575    6.2826 C.ar    1  UNL1        0.0294
      6 C          10.2490   40.7443    5.0316 C.3     1  UNL1        0.0521
      7 N          11.5628   39.5818    6.7629 N.ar    1  UNL1       -0.2539
      8 C          12.7837   38.2642    8.4756 C.3     1  UNL1        0.0563
      9 C          11.6905   38.0524    9.5139 C.3     1  UNL1        0.0087
     10 C          11.9729   36.7775   10.2912 C.3     1  UNL1        0.0178
     11 C          13.3596   36.8615   10.9358 C.3     1  UNL1        0.0725
     12 C          14.1590   38.3015    9.1546 C.3     1  UNL1        0.0784
     13 N          14.4272   37.0952    9.9500 N.3     1  UNL1       -0.2647
     14 C          14.5659   35.9408    9.0643 C.3     1  UNL1        0.1587
     15 C          16.0093   35.6879    8.7610 C.2     1  UNL1        0.2420
     16 C          17.8966   34.1476    8.1613 C.3     1  UNL1        0.0934
     17 C          18.1821   32.6792    7.8539 C.3     1  UNL1        0.0216
     18 C          17.2031   32.1734    6.7973 C.3     1  UNL1        0.0035
     19 C          15.7325   32.3697    7.1980 C.3     1  UNL1        0.0216
     20 C          15.5447   33.2367    8.4461 C.3     1  UNL1        0.0934
     21 N          16.4724   34.3693    8.4322 N.am    1  UNL1       -0.2784
     22 O          16.8172   36.6553    8.7880 O.2     1  UNL1       -0.2734
     23 N          13.9397   42.9635    7.5279 N.pl3   1  UNL1       -0.2981
     24 H          13.4984   43.7206    7.9765 H       1  UNL1        0.1536
     25 C          14.7180   44.4088    5.1426 C.3     1  UNL1        0.0340
     26 C          15.7245   43.8270    6.0752 C.ar    1  UNL1        0.0099
     27 C          15.3357   43.1275    7.2299 C.ar    1  UNL1        0.1281
     28 C          17.6201   42.7550    7.7929 C.ar    1  UNL1        0.1003
     29 C          18.0401   43.4439    6.6548 C.ar    1  UNL1        0.0204
     30 C          17.0833   43.9812    5.7939 C.ar    1  UNL1        0.0001
     31 N          16.2930   42.6134    8.0528 N.ar    1  UNL1       -0.2294
@<TRIPOS>BOND
     1    25    26    1
     2    27    31   ar
     3    27    23    1
     4    28    29   ar
     5    30    26   ar
     6     2     3   ar
     7     4     7   ar
     8     5     1   ar
     9     6     4    1
    10     8     3    1
    11     8     9    1
    12     9    10    1
    13    10    11    1
    14    11    13    1
    15    12    13    1
    16    12     8    1
    17    14    13    1
    18    14    15    1
    19    15    21   am
    20    16    21    1
    21    16    17    1
    22    17    18    1
    23    18    19    1
    24    19    20    1
    25    20    21    1
    26    23     1    1
    27    26    27   ar
    28    28    31   ar
    29    29    30   ar
    30     1     2   ar
    31     3     7   ar
    32     4     5   ar
    33    15    22    2
    34    23    24    1
@<TRIPOS>MOLECULE
Molport-020-292-445 MCULE-7249541953 PubChem-110264913
 31 34 0 0 0
SMALL
GASTEIGER

@<TRIPOS>ATOM
      1 C          14.3487   41.0360    8.8711 C.ar    1  UNL1        0.0517
      2 C          13.0865   41.6183    8.7321 C.ar    1  UNL1        0.0294
      3 C          12.0562   41.2565    9.6039 C.ar    1  UNL1        0.0608
      4 C          13.5058   39.7564   10.7410 C.ar    1  UNL1        0.0602
      5 C          14.5574   40.0951    9.8876 C.ar    1  UNL1        0.0294
      6 C          13.7188   38.7593   11.8216 C.3     1  UNL1        0.0521
      7 N          12.2872   40.3383   10.5838 N.ar    1  UNL1       -0.2539
      8 C          10.7099   41.8821    9.4487 C.3     1  UNL1        0.0563
      9 C          10.4833   42.9417   10.5181 C.3     1  UNL1        0.0087
     10 C           9.0995   43.5456   10.3452 C.3     1  UNL1        0.0178
     11 C           8.0416   42.4401   10.4082 C.3     1  UNL1        0.0725
     12 C           9.6084   40.8162    9.5174 C.3     1  UNL1        0.0784
     13 N           8.2609   41.3907    9.3998 N.3     1  UNL1       -0.2647
     14 C           8.0690   41.9277    8.0540 C.3     1  UNL1        0.1587
     15 C           7.9037   40.8142    7.0680 C.2     1  UNL1        0.2420
     16 C           8.6503   39.5390    5.0405 C.3     1  UNL1        0.0934
     17 C           9.7522   39.5242    3.9834 C.3     1  UNL1        0.0216
     18 C          11.1186   39.5873    4.6614 C.3     1  UNL1        0.0035
     19 C          11.2725   40.8013    5.5910 C.3     1  UNL1        0.0216
     20 C           9.9647   41.5596    5.8352 C.3     1  UNL1        0.0934
     21 N           8.8503   40.6254    6.0053 N.am    1  UNL1       -0.2784
     22 O           6.9219   40.0326    7.1889 O.2     1  UNL1       -0.2734
     23 N          15.3899   41.4241    7.9637 N.pl3   1  UNL1       -0.2981
     24 H          16.1430   40.7967    7.8713 H       1  UNL1        0.1536
     25 C          17.5686   43.2806    8.4003 C.3     1  UNL1        0.0340
     26 C          16.5135   43.5302    7.3778 C.ar    1  UNL1        0.0099
     27 C          15.4607   42.6224    7.1742 C.ar    1  UNL1        0.1281
     28 C          14.5637   44.0210    5.4671 C.ar    1  UNL1        0.1003
     29 C          15.5956   44.9430    5.6439 C.ar    1  UNL1        0.0204
     30 C          16.5738   44.6919    6.6059 C.ar    1  UNL1        0.0001
     31 N          14.5190   42.8941    6.2269 N.ar    1  UNL1       -0.2294
@<TRIPOS>BOND
     1    25    26    1
     2    27    31   ar
     3    27    23    1
     4    28    29   ar
     5    30    26   ar
     6     2     3   ar
     7     4     7   ar
     8     5     1   ar
     9     6     4    1
    10     8     3    1
    11     8     9    1
    12     9    10    1
    13    10    11    1
    14    11    13    1
    15    12    13    1
    16    12     8    1
    17    14    13    1
    18    14    15    1
    19    15    21   am
    20    16    21    1
    21    16    17    1
    22    17    18    1
    23    18    19    1
    24    19    20    1
    25    20    21    1
    26    23     1    1
    27    26    27   ar
    28    28    31   ar
    29    29    30   ar
    30     1     2   ar
    31     3     7   ar
    32     4     5   ar
    33    15    22    2
    34    23    24    1
@<TRIPOS>MOLECULE
Molport-020-292-445 MCULE-7249541953 PubChem-110264913
 31 34 0 0 0
SMALL
GASTEIGER

@<TRIPOS>ATOM
      1 C          14.3850   40.6208    9.0569 C.ar    1  UNL1        0.0517
      2 C          13.2052   41.3654    9.1291 C.ar    1  UNL1        0.0294
      3 C          12.1057   40.8568    9.8256 C.ar    1  UNL1        0.0608
      4 C          13.3254   38.8934   10.3751 C.ar    1  UNL1        0.0602
      5 C          14.4424   39.3715    9.6879 C.ar    1  UNL1        0.0294
      6 C          13.3780   37.5692   11.0469 C.3     1  UNL1        0.0521
      7 N          12.1895   39.6384   10.4299 N.ar    1  UNL1       -0.2539
      8 C          10.8481   41.6576    9.8976 C.3     1  UNL1        0.0563
      9 C          11.1286   43.1256    9.6073 C.3     1  UNL1        0.0087
     10 C           9.8344   43.9160    9.7065 C.3     1  UNL1        0.0178
     11 C           9.2140   43.7198   11.0929 C.3     1  UNL1        0.0725
     12 C          10.1903   41.5064   11.2754 C.3     1  UNL1        0.0784
     13 N           8.9622   42.3033   11.4034 N.3     1  UNL1       -0.2647
     14 C           7.9292   41.7632   10.5218 C.3     1  UNL1        0.1587
     15 C           6.7003   41.4249   11.3060 C.2     1  UNL1        0.2420
     16 C           4.2144   41.4849   11.6389 C.3     1  UNL1        0.0934
     17 C           2.9376   41.9993   10.9778 C.3     1  UNL1        0.0216
     18 C           2.9060   41.5704    9.5130 C.3     1  UNL1        0.0035
     19 C           4.1465   42.0239    8.7273 C.3     1  UNL1        0.0216
     20 C           5.2594   42.5957    9.6101 C.3     1  UNL1        0.0934
     21 N           5.3991   41.8107   10.8380 N.am    1  UNL1       -0.2784
     22 O           6.8219   40.7837   12.3846 O.2     1  UNL1       -0.2734
     23 N          15.4996   41.1647    8.3360 N.pl3   1  UNL1       -0.2981
     24 H          16.3298   40.6359    8.3544 H       1  UNL1        0.1536
     25 C          13.4247   41.7178    6.3937 C.3     1  UNL1        0.0340
     26 C          14.5428   42.6704    6.6453 C.ar    1  UNL1        0.0099
     27 C          15.5444   42.3920    7.5903 C.ar    1  UNL1        0.1281
     28 C          16.6120   44.4626    7.0925 C.ar    1  UNL1        0.1003
     29 C          15.6335   44.7697    6.1469 C.ar    1  UNL1        0.0204
     30 C          14.5949   43.8656    5.9254 C.ar    1  UNL1        0.0001
     31 N          16.5472   43.2944    7.7855 N.ar    1  UNL1       -0.2294
@<TRIPOS>BOND
     1    25    26    1
     2    27    31   ar
     3    27    23    1
     4    28    29   ar
     5    30    26   ar
     6     2     3   ar
     7     4     7   ar
     8     5     1   ar
     9     6     4    1
    10     8     3    1
    11     8     9    1
    12     9    10    1
    13    10    11    1
    14    11    13    1
    15    12    13    1
    16    12     8    1
    17    14    13    1
    18    14    15    1
    19    15    21   am
    20    16    21    1
    21    16    17    1
    22    17    18    1
    23    18    19    1
    24    19    20    1
    25    20    21    1
    26    23     1    1
    27    26    27   ar
    28    28    31   ar
    29    29    30   ar
    30     1     2   ar
    31     3     7   ar
    32     4     5   ar
    33    15    22    2
    34    23    24    1
