@<TRIPOS>MOLECULE
MolPort-020-295-331 MCULE-2719425301 PubChem-110267413
 29 32 0 0 0
SMALL
GASTEIGER

@<TRIPOS>ATOM
      1 C           8.4507   39.6219    5.6114 C.ar    1  UNL1        0.2214
      2 C           9.6740   38.9298    3.7064 C.ar    1  UNL1        0.1031
      3 C          10.8690   39.2693    4.3361 C.ar    1  UNL1        0.0356
      4 C          10.8136   39.7941    5.6321 C.ar    1  UNL1        0.0647
      5 N           8.4923   39.1108    4.3506 N.ar    1  UNL1       -0.2120
      6 N           9.6087   39.9579    6.2390 N.ar    1  UNL1       -0.2179
      7 C          12.0592   40.1777    6.3651 C.3     1  UNL1        0.0603
      8 C          12.0790   39.5769    7.7732 C.3     1  UNL1        0.0094
      9 C          13.3625   39.9688    8.5013 C.3     1  UNL1        0.0220
     10 C          13.4775   41.4882    8.5651 C.3     1  UNL1        0.0937
     11 C          12.2189   41.6983    6.4183 C.3     1  UNL1        0.0996
     12 C          14.3392   43.0071    6.7279 C.2     1  UNL1        0.2563
     13 N          13.3949   42.0383    7.2145 N.am    1  UNL1       -0.2753
     14 O          13.9917   43.7929    5.8050 O.2     1  UNL1       -0.2693
     15 C          15.7179   43.0958    7.2640 C.ar    1  UNL1        0.0979
     16 C          16.3359   42.2113    8.1506 C.ar    1  UNL1        0.0704
     17 C          18.0123   43.7258    7.9838 C.ar    1  UNL1        0.1342
     18 C          15.7084   40.9555    8.6498 C.3     1  UNL1        0.0528
     19 N          17.5938   42.5625    8.5319 N.ar    1  UNL1       -0.2404
     20 S          16.8048   44.3518    6.9959 S.2     1  UNL1       -0.0603
     21 N           7.2056   39.8138    6.2935 N.pl3   1  UNL1       -0.2680
     22 H           6.6372   39.0188    6.4127 H       1  UNL1        0.1565
     23 C           5.2320   44.7382    8.3653 C.3     1  UNL1        0.0327
     24 C           5.7505   43.4582    7.8172 C.ar    1  UNL1       -0.0026
     25 C           5.5461   42.2617    8.5063 C.ar    1  UNL1        0.0960
     26 C           6.7070   41.0499    6.8190 C.ar    1  UNL1        0.1343
     27 C           6.9290   42.2302    6.1041 C.ar    1  UNL1        0.0342
     28 C           6.4468   43.4394    6.6083 C.ar    1  UNL1        0.0001
     29 N           6.0238   41.0938    7.9979 N.ar    1  UNL1       -0.2293
@<TRIPOS>BOND
     1    23    24    1
     2    25    29   ar
     3    26    27   ar
     4    26    21    1
     5    28    24   ar
     6     1     6   ar
     7     2     5   ar
     8     3     4   ar
     9     7     4    1
    10     7     8    1
    11     8     9    1
    12     9    10    1
    13    10    13    1
    14    11    13    1
    15    11     7    1
    16    12    15    1
    17    15    20   ar
    18    16    19   ar
    19    17    20   ar
    20    18    16    1
    21    21     1    1
    22    13    12   am
    23    24    25   ar
    24    26    29   ar
    25    27    28   ar
    26     1     5   ar
    27     2     3   ar
    28     4     6   ar
    29    12    14    2
    30    15    16   ar
    31    17    19   ar
    32    21    22    1
@<TRIPOS>MOLECULE
MolPort-020-295-331 MCULE-2719425301 PubChem-110267413
 29 32 0 0 0
SMALL
GASTEIGER

@<TRIPOS>ATOM
      1 C          16.8254   40.1827   10.0289 C.ar    1  UNL1        0.2214
      2 C          16.7898   38.4083   11.5957 C.ar    1  UNL1        0.1031
      3 C          15.3975   38.3916   11.5626 C.ar    1  UNL1        0.0356
      4 C          14.7397   39.3061   10.7323 C.ar    1  UNL1        0.0647
      5 N          17.4761   39.2980   10.8330 N.ar    1  UNL1       -0.2120
      6 N          15.4668   40.1786    9.9860 N.ar    1  UNL1       -0.2179
      7 C          13.2472   39.3405   10.6490 C.3     1  UNL1        0.0603
      8 C          12.7014   38.0737    9.9846 C.3     1  UNL1        0.0094
      9 C          11.1767   38.1212    9.9196 C.3     1  UNL1        0.0220
     10 C          10.7302   39.3627    9.1546 C.3     1  UNL1        0.0937
     11 C          12.7668   40.5929    9.9133 C.3     1  UNL1        0.0996
     12 C          10.5249   41.7095   10.0901 C.2     1  UNL1        0.2563
     13 N          11.3138   40.5501    9.7734 N.am    1  UNL1       -0.2753
     14 O          11.0883   42.8356   10.1571 O.2     1  UNL1       -0.2693
     15 C           9.0711   41.6179   10.3620 C.ar    1  UNL1        0.0979
     16 C           8.0322   41.7171    9.4340 C.ar    1  UNL1        0.0704
     17 C           6.7742   41.5261   11.3083 C.ar    1  UNL1        0.1342
     18 C           8.2361   41.8565    7.9646 C.3     1  UNL1        0.0528
     19 N           6.7798   41.6583    9.9624 N.ar    1  UNL1       -0.2404
     20 S           8.3550   41.4782   11.8781 S.2     1  UNL1       -0.0603
     21 N          17.5468   41.1224    9.2233 N.pl3   1  UNL1       -0.2680
     22 H          18.5296   41.0747    9.2576 H       1  UNL1        0.1565
     23 C          15.3015   45.1190    5.8436 C.3     1  UNL1        0.0327
     24 C          15.8954   44.0816    6.7261 C.ar    1  UNL1       -0.0026
     25 C          15.1680   42.9374    7.0578 C.ar    1  UNL1        0.0960
     26 C          16.9774   42.1248    8.3727 C.ar    1  UNL1        0.1343
     27 C          17.7325   43.2586    8.0599 C.ar    1  UNL1        0.0342
     28 C          17.1860   44.2407    7.2318 C.ar    1  UNL1        0.0001
     29 N          15.7187   41.9920    7.8663 N.ar    1  UNL1       -0.2293
@<TRIPOS>BOND
     1    23    24    1
     2    25    29   ar
     3    26    27   ar
     4    26    21    1
     5    28    24   ar
     6     1     6   ar
     7     2     5   ar
     8     3     4   ar
     9     7     4    1
    10     7     8    1
    11     8     9    1
    12     9    10    1
    13    10    13    1
    14    11    13    1
    15    11     7    1
    16    12    15    1
    17    15    20   ar
    18    16    19   ar
    19    17    20   ar
    20    18    16    1
    21    21     1    1
    22    13    12   am
    23    24    25   ar
    24    26    29   ar
    25    27    28   ar
    26     1     5   ar
    27     2     3   ar
    28     4     6   ar
    29    12    14    2
    30    15    16   ar
    31    17    19   ar
    32    21    22    1
@<TRIPOS>MOLECULE
MolPort-020-295-331 MCULE-2719425301 PubChem-110267413
 29 32 0 0 0
SMALL
GASTEIGER

@<TRIPOS>ATOM
      1 C          16.5189   40.2064    9.9702 C.ar    1  UNL1        0.2214
      2 C          16.4326   38.5719   11.6807 C.ar    1  UNL1        0.1031
      3 C          15.0404   38.5926   11.6461 C.ar    1  UNL1        0.0356
      4 C          14.4090   39.4524   10.7404 C.ar    1  UNL1        0.0647
      5 N          17.1440   39.3742   10.8473 N.ar    1  UNL1       -0.2120
      6 N          15.1607   40.2378    9.9249 N.ar    1  UNL1       -0.2179
      7 C          12.9180   39.5226   10.6513 C.3     1  UNL1        0.0603
      8 C          12.3568   38.3485    9.8446 C.3     1  UNL1        0.0094
      9 C          10.8337   38.4302    9.7749 C.3     1  UNL1        0.0220
     10 C          10.4151   39.7577    9.1517 C.3     1  UNL1        0.0937
     11 C          12.4654   40.8582   10.0581 C.3     1  UNL1        0.0996
     12 C          10.2412   41.9876   10.3444 C.2     1  UNL1        0.2563
     13 N          11.0132   40.8573    9.9044 N.am    1  UNL1       -0.2753
     14 O          10.8231   43.0887   10.5417 O.2     1  UNL1       -0.2693
     15 C           8.7838   41.8918   10.5942 C.ar    1  UNL1        0.0979
     16 C           8.1556   41.4945   11.7765 C.ar    1  UNL1        0.0704
     17 C           6.3028   41.7661   10.5017 C.ar    1  UNL1        0.1342
     18 C           8.8794   41.1700   13.0378 C.3     1  UNL1        0.0528
     19 N           6.7976   41.4363   11.7163 N.ar    1  UNL1       -0.2404
     20 S           7.5669   42.1439    9.4599 S.2     1  UNL1       -0.0603
     21 N          17.2669   41.0538    9.0899 N.pl3   1  UNL1       -0.2680
     22 H          18.2386   40.9018    9.0461 H       1  UNL1        0.1565
     23 C          15.1479   45.2050    5.8166 C.3     1  UNL1        0.0327
     24 C          15.6925   44.1170    6.6695 C.ar    1  UNL1       -0.0026
     25 C          16.9750   44.2202    7.2107 C.ar    1  UNL1        0.0960
     26 C          16.7385   42.1010    8.2671 C.ar    1  UNL1        0.1343
     27 C          15.4507   41.9663    7.7407 C.ar    1  UNL1        0.0342
     28 C          14.9274   42.9816    6.9379 C.ar    1  UNL1        0.0001
     29 N          17.4665   43.2199    7.9906 N.ar    1  UNL1       -0.2293
@<TRIPOS>BOND
     1    23    24    1
     2    25    29   ar
     3    26    27   ar
     4    26    21    1
     5    28    24   ar
     6     1     6   ar
     7     2     5   ar
     8     3     4   ar
     9     7     4    1
    10     7     8    1
    11     8     9    1
    12     9    10    1
    13    10    13    1
    14    11    13    1
    15    11     7    1
    16    12    15    1
    17    15    20   ar
    18    16    19   ar
    19    17    20   ar
    20    18    16    1
    21    21     1    1
    22    13    12   am
    23    24    25   ar
    24    26    29   ar
    25    27    28   ar
    26     1     5   ar
    27     2     3   ar
    28     4     6   ar
    29    12    14    2
    30    15    16   ar
    31    17    19   ar
    32    21    22    1
@<TRIPOS>MOLECULE
MolPort-020-295-331 MCULE-2719425301 PubChem-110267413
 29 32 0 0 0
SMALL
GASTEIGER

@<TRIPOS>ATOM
      1 C          13.1071   40.9980    8.8405 C.ar    1  UNL1        0.2214
      2 C          12.9383   39.8449   10.9012 C.ar    1  UNL1        0.1031
      3 C          11.6478   40.3360   11.0834 C.ar    1  UNL1        0.0356
      4 C          11.1088   41.1741   10.1010 C.ar    1  UNL1        0.0647
      5 N          13.6419   40.1821    9.7896 N.ar    1  UNL1       -0.2120
      6 N          11.8488   41.4852    9.0044 N.ar    1  UNL1       -0.2179
      7 C           9.7289   41.7345   10.2343 C.3     1  UNL1        0.0603
      8 C           9.2544   41.6946   11.6894 C.3     1  UNL1        0.0094
      9 C           7.8499   42.2815   11.8077 C.3     1  UNL1        0.0220
     10 C           6.8894   41.5094   10.9092 C.3     1  UNL1        0.0937
     11 C           8.7469   40.9998    9.3197 C.3     1  UNL1        0.0996
     12 C           6.5625   41.8488    8.4187 C.2     1  UNL1        0.2563
     13 N           7.3974   41.5125    9.5398 N.am    1  UNL1       -0.2753
     14 O           6.8534   41.3949    7.2788 O.2     1  UNL1       -0.2693
     15 C           5.3808   42.7320    8.5586 C.ar    1  UNL1        0.0979
     16 C           4.1155   42.3784    9.0321 C.ar    1  UNL1        0.0704
     17 C           3.6686   44.5331    8.4944 C.ar    1  UNL1        0.1342
     18 C           3.7699   41.0294    9.5622 C.3     1  UNL1        0.0528
     19 N           3.1887   43.3738    8.9991 N.ar    1  UNL1       -0.2404
     20 S           5.2843   44.3398    8.0722 S.2     1  UNL1       -0.0603
     21 N          13.8471   41.3553    7.6669 N.pl3   1  UNL1       -0.2680
     22 H          13.4840   41.0525    6.8033 H       1  UNL1        0.1565
     23 C          18.6935   44.3435    7.5257 C.3     1  UNL1        0.0327
     24 C          17.4330   43.5580    7.5692 C.ar    1  UNL1       -0.0026
     25 C          16.3512   43.9155    6.7629 C.ar    1  UNL1        0.0960
     26 C          15.0641   42.1103    7.6275 C.ar    1  UNL1        0.1343
     27 C          16.1284   41.7257    8.4478 C.ar    1  UNL1        0.0342
     28 C          17.3182   42.4553    8.4163 C.ar    1  UNL1        0.0001
     29 N          15.2005   43.1914    6.8083 N.ar    1  UNL1       -0.2293
@<TRIPOS>BOND
     1    23    24    1
     2    25    29   ar
     3    26    27   ar
     4    26    21    1
     5    28    24   ar
     6     1     6   ar
     7     2     5   ar
     8     3     4   ar
     9     7     4    1
    10     7     8    1
    11     8     9    1
    12     9    10    1
    13    10    13    1
    14    11    13    1
    15    11     7    1
    16    12    15    1
    17    15    20   ar
    18    16    19   ar
    19    17    20   ar
    20    18    16    1
    21    21     1    1
    22    13    12   am
    23    24    25   ar
    24    26    29   ar
    25    27    28   ar
    26     1     5   ar
    27     2     3   ar
    28     4     6   ar
    29    12    14    2
    30    15    16   ar
    31    17    19   ar
    32    21    22    1
@<TRIPOS>MOLECULE
MolPort-020-295-331 MCULE-2719425301 PubChem-110267413
 29 32 0 0 0
SMALL
GASTEIGER

@<TRIPOS>ATOM
      1 C           2.8689   42.2858   11.4623 C.ar    1  UNL1        0.2214
      2 C           2.6435   41.2036    9.3688 C.ar    1  UNL1        0.1031
      3 C           4.0214   41.0099    9.3076 C.ar    1  UNL1        0.0356
      4 C           4.8078   41.4784   10.3660 C.ar    1  UNL1        0.0647
      5 N           2.0939   41.8344   10.4385 N.ar    1  UNL1       -0.2120
      6 N           4.2152   42.1041   11.4168 N.ar    1  UNL1       -0.2179
      7 C           6.2927   41.3018   10.3635 C.3     1  UNL1        0.0603
      8 C           6.8886   41.6146   11.7387 C.3     1  UNL1        0.0094
      9 C           8.4025   41.4171   11.7204 C.3     1  UNL1        0.0220
     10 C           9.0271   42.3065   10.6504 C.3     1  UNL1        0.0937
     11 C           6.9460   42.1590    9.2778 C.3     1  UNL1        0.0996
     12 C           9.1709   41.7978    8.1714 C.2     1  UNL1        0.2563
     13 N           8.3982   42.0298    9.3615 N.am    1  UNL1       -0.2753
     14 O           8.6538   42.0398    7.0471 O.2     1  UNL1       -0.2693
     15 C          10.5512   41.2614    8.2253 C.ar    1  UNL1        0.0979
     16 C          10.9336   39.9183    8.2393 C.ar    1  UNL1        0.0704
     17 C          12.9913   40.8423    8.4486 C.ar    1  UNL1        0.1342
     18 C           9.9818   38.7783    8.1184 C.3     1  UNL1        0.0528
     19 N          12.2717   39.7011    8.3545 N.ar    1  UNL1       -0.2404
     20 S          11.9592   42.1679    8.3887 S.2     1  UNL1       -0.0603
     21 N           2.2917   42.9515   12.5920 N.pl3   1  UNL1       -0.2680
     22 H           2.7664   43.7448   12.9305 H       1  UNL1        0.1565
     23 C          -2.4714   41.4593   15.3347 C.3     1  UNL1        0.0327
     24 C          -1.2245   41.8503   14.6277 C.ar    1  UNL1       -0.0026
     25 C          -1.1638   41.8156   13.2336 C.ar    1  UNL1        0.0960
     26 C           1.0910   42.5751   13.2771 C.ar    1  UNL1        0.1343
     27 C           1.0636   42.6210   14.6738 C.ar    1  UNL1        0.0342
     28 C          -0.1019   42.2562   15.3501 C.ar    1  UNL1        0.0001
     29 N          -0.0186   42.1752   12.5935 N.ar    1  UNL1       -0.2293
@<TRIPOS>BOND
     1    23    24    1
     2    25    29   ar
     3    26    27   ar
     4    26    21    1
     5    28    24   ar
     6     1     6   ar
     7     2     5   ar
     8     3     4   ar
     9     7     4    1
    10     7     8    1
    11     8     9    1
    12     9    10    1
    13    10    13    1
    14    11    13    1
    15    11     7    1
    16    12    15    1
    17    15    20   ar
    18    16    19   ar
    19    17    20   ar
    20    18    16    1
    21    21     1    1
    22    13    12   am
    23    24    25   ar
    24    26    29   ar
    25    27    28   ar
    26     1     5   ar
    27     2     3   ar
    28     4     6   ar
    29    12    14    2
    30    15    16   ar
    31    17    19   ar
    32    21    22    1
@<TRIPOS>MOLECULE
MolPort-020-295-331 MCULE-2719425301 PubChem-110267413
 29 32 0 0 0
SMALL
GASTEIGER

@<TRIPOS>ATOM
      1 C          14.8566   40.1081    9.8370 C.ar    1  UNL1        0.2214
      2 C          13.9446   38.5016   11.3175 C.ar    1  UNL1        0.1031
      3 C          12.7153   39.1556   11.2882 C.ar    1  UNL1        0.0356
      4 C          12.5923   40.3084   10.5047 C.ar    1  UNL1        0.0647
      5 N          14.9881   38.9858   10.5958 N.ar    1  UNL1       -0.2120
      6 N          13.6631   40.7574    9.7984 N.ar    1  UNL1       -0.2179
      7 C          11.3003   41.0574   10.4281 C.3     1  UNL1        0.0603
      8 C          10.4328   40.7903   11.6609 C.3     1  UNL1        0.0094
      9 C           9.1245   41.5723   11.5709 C.3     1  UNL1        0.0220
     10 C           8.3790   41.1880   10.2972 C.3     1  UNL1        0.0937
     11 C          10.5429   40.7162    9.1434 C.3     1  UNL1        0.0996
     12 C           8.8078   42.1029    7.9725 C.2     1  UNL1        0.2563
     13 N           9.2503   41.3956    9.1434 N.am    1  UNL1       -0.2753
     14 O           9.3577   41.8596    6.8642 O.2     1  UNL1       -0.2693
     15 C           7.7380   43.1266    8.0328 C.ar    1  UNL1        0.0979
     16 C           7.7036   44.2629    8.8438 C.ar    1  UNL1        0.0704
     17 C           5.6678   44.4939    7.8774 C.ar    1  UNL1        0.1342
     18 C           8.8131   44.6768    9.7481 C.3     1  UNL1        0.0528
     19 N           6.5691   45.0074    8.7451 N.ar    1  UNL1       -0.2404
     20 S           6.2750   43.0787    7.2032 S.2     1  UNL1       -0.0603
     21 N          15.9558   40.6212    9.0746 N.pl3   1  UNL1       -0.2680
     22 H          16.8010   40.1184    9.1198 H       1  UNL1        0.1565
     23 C          15.8927   45.2800    5.7993 C.3     1  UNL1        0.0327
     24 C          15.9007   44.0619    6.6500 C.ar    1  UNL1       -0.0026
     25 C          16.9616   43.8189    7.5239 C.ar    1  UNL1        0.0960
     26 C          15.9447   41.7947    8.2529 C.ar    1  UNL1        0.1343
     27 C          14.8673   42.0081    7.3885 C.ar    1  UNL1        0.0342
     28 C          14.8478   43.1488    6.5839 C.ar    1  UNL1        0.0001
     29 N          16.9617   42.7014    8.2995 N.ar    1  UNL1       -0.2293
@<TRIPOS>BOND
     1    23    24    1
     2    25    29   ar
     3    26    27   ar
     4    26    21    1
     5    28    24   ar
     6     1     6   ar
     7     2     5   ar
     8     3     4   ar
     9     7     4    1
    10     7     8    1
    11     8     9    1
    12     9    10    1
    13    10    13    1
    14    11    13    1
    15    11     7    1
    16    12    15    1
    17    15    20   ar
    18    16    19   ar
    19    17    20   ar
    20    18    16    1
    21    21     1    1
    22    13    12   am
    23    24    25   ar
    24    26    29   ar
    25    27    28   ar
    26     1     5   ar
    27     2     3   ar
    28     4     6   ar
    29    12    14    2
    30    15    16   ar
    31    17    19   ar
    32    21    22    1
@<TRIPOS>MOLECULE
MolPort-020-295-331 MCULE-2719425301 PubChem-110267413
 29 32 0 0 0
SMALL
GASTEIGER

@<TRIPOS>ATOM
      1 C          15.7979   40.0322   10.0616 C.ar    1  UNL1        0.2214
      2 C          15.3583   38.5094   11.8201 C.ar    1  UNL1        0.1031
      3 C          13.9897   38.6144   11.5844 C.ar    1  UNL1        0.0356
      4 C          13.5533   39.4572   10.5561 C.ar    1  UNL1        0.0647
      5 N          16.2340   39.2157   11.0594 N.ar    1  UNL1       -0.2120
      6 N          14.4651   40.1452    9.8197 N.ar    1  UNL1       -0.2179
      7 C          12.0982   39.6145   10.2499 C.3     1  UNL1        0.0603
      8 C          11.6803   38.7218    9.0783 C.3     1  UNL1        0.0094
      9 C          10.1904   38.8865    8.7884 C.3     1  UNL1        0.0220
     10 C           9.8811   40.3487    8.4852 C.3     1  UNL1        0.0937
     11 C          11.7505   41.0782    9.9718 C.3     1  UNL1        0.0996
     12 C           9.5092   42.1891   10.1879 C.2     1  UNL1        0.2563
     13 N          10.3444   41.1824    9.5914 N.am    1  UNL1       -0.2753
     14 O          10.0492   43.1719   10.7645 O.2     1  UNL1       -0.2693
     15 C           8.0305   42.0954   10.1645 C.ar    1  UNL1        0.0979
     16 C           7.1694   42.5977    9.1865 C.ar    1  UNL1        0.0704
     17 C           5.6038   41.8046   10.6188 C.ar    1  UNL1        0.1342
     18 C           7.6266   43.2596    7.9323 C.3     1  UNL1        0.0528
     19 N           5.8441   42.4265    9.4421 N.ar    1  UNL1       -0.2404
     20 S           7.0608   41.4485   11.3778 S.2     1  UNL1       -0.0603
     21 N          16.7194   40.7784    9.2575 N.pl3   1  UNL1       -0.2680
     22 H          17.6625   40.4972    9.2857 H       1  UNL1        0.1565
     23 C          15.4394   45.2035    5.9083 C.3     1  UNL1        0.0327
     24 C          15.7650   44.0448    6.7796 C.ar    1  UNL1       -0.0026
     25 C          16.9638   44.0145    7.4938 C.ar    1  UNL1        0.0960
     26 C          16.4021   41.8940    8.4163 C.ar    1  UNL1        0.1343
     27 C          15.1933   41.8930    7.7147 C.ar    1  UNL1        0.0342
     28 C          14.8756   42.9758    6.8927 C.ar    1  UNL1        0.0001
     29 N          17.2547   42.9502    8.2895 N.ar    1  UNL1       -0.2293
@<TRIPOS>BOND
     1    23    24    1
     2    25    29   ar
     3    26    27   ar
     4    26    21    1
     5    28    24   ar
     6     1     6   ar
     7     2     5   ar
     8     3     4   ar
     9     7     4    1
    10     7     8    1
    11     8     9    1
    12     9    10    1
    13    10    13    1
    14    11    13    1
    15    11     7    1
    16    12    15    1
    17    15    20   ar
    18    16    19   ar
    19    17    20   ar
    20    18    16    1
    21    21     1    1
    22    13    12   am
    23    24    25   ar
    24    26    29   ar
    25    27    28   ar
    26     1     5   ar
    27     2     3   ar
    28     4     6   ar
    29    12    14    2
    30    15    16   ar
    31    17    19   ar
    32    21    22    1
@<TRIPOS>MOLECULE
MolPort-020-295-331 MCULE-2719425301 PubChem-110267413
 29 32 0 0 0
SMALL
GASTEIGER

@<TRIPOS>ATOM
      1 C           8.9554   41.2223   10.3499 C.ar    1  UNL1        0.2214
      2 C           9.7898   41.3394   12.5623 C.ar    1  UNL1        0.1031
      3 C          11.0459   40.9287   12.1226 C.ar    1  UNL1        0.0356
      4 C          11.2223   40.6681   10.7591 C.ar    1  UNL1        0.0647
      5 N           8.7720   41.4784   11.6741 N.ar    1  UNL1       -0.2120
      6 N          10.1756   40.8205    9.9057 N.ar    1  UNL1       -0.2179
      7 C          12.5452   40.2251   10.2210 C.3     1  UNL1        0.0603
      8 C          12.4002   39.6325    8.8167 C.3     1  UNL1        0.0094
      9 C          13.7615   39.1976    8.2792 C.3     1  UNL1        0.0220
     10 C          14.3914   38.1824    9.2271 C.3     1  UNL1        0.0937
     11 C          13.2172   39.2284   11.1672 C.3     1  UNL1        0.0996
     12 C          15.6657   38.7047   11.3551 C.2     1  UNL1        0.2563
     13 N          14.4618   38.7514   10.5705 N.am    1  UNL1       -0.2753
     14 O          15.5807   38.7472   12.6125 O.2     1  UNL1       -0.2693
     15 C          17.0067   38.6298   10.7292 C.ar    1  UNL1        0.0979
     16 C          17.6064   39.5840    9.9045 C.ar    1  UNL1        0.0704
     17 C          19.2300   38.0072    9.8077 C.ar    1  UNL1        0.1342
     18 C          17.0002   40.9058    9.5798 C.3     1  UNL1        0.0528
     19 N          18.8259   39.2356    9.4119 N.ar    1  UNL1       -0.2404
     20 S          18.0580   37.3179   10.7963 S.2     1  UNL1       -0.0603
     21 N           7.8834   41.3682    9.4107 N.pl3   1  UNL1       -0.2680
     22 H           8.1314   41.4343    8.4602 H       1  UNL1        0.1565
     23 C           2.3321   41.6053   10.6610 C.3     1  UNL1        0.0327
     24 C           3.7825   41.5445   10.3442 C.ar    1  UNL1       -0.0026
     25 C           4.2099   41.3740    9.0264 C.ar    1  UNL1        0.0960
     26 C           6.4857   41.4272    9.7199 C.ar    1  UNL1        0.1343
     27 C           6.0913   41.5987   11.0498 C.ar    1  UNL1        0.0342
     28 C           4.7316   41.6575   11.3606 C.ar    1  UNL1        0.0001
     29 N           5.5396   41.3194    8.7444 N.ar    1  UNL1       -0.2293
@<TRIPOS>BOND
     1    23    24    1
     2    25    29   ar
     3    26    27   ar
     4    26    21    1
     5    28    24   ar
     6     1     6   ar
     7     2     5   ar
     8     3     4   ar
     9     7     4    1
    10     7     8    1
    11     8     9    1
    12     9    10    1
    13    10    13    1
    14    11    13    1
    15    11     7    1
    16    12    15    1
    17    15    20   ar
    18    16    19   ar
    19    17    20   ar
    20    18    16    1
    21    21     1    1
    22    13    12   am
    23    24    25   ar
    24    26    29   ar
    25    27    28   ar
    26     1     5   ar
    27     2     3   ar
    28     4     6   ar
    29    12    14    2
    30    15    16   ar
    31    17    19   ar
    32    21    22    1
@<TRIPOS>MOLECULE
MolPort-020-295-331 MCULE-2719425301 PubChem-110267413
 29 32 0 0 0
SMALL
GASTEIGER

@<TRIPOS>ATOM
      1 C          14.1746   40.3703    9.6307 C.ar    1  UNL1        0.2214
      2 C          13.3619   39.3833   11.6232 C.ar    1  UNL1        0.1031
      3 C          12.0681   39.7953   11.3133 C.ar    1  UNL1        0.0356
      4 C          11.8621   40.5087   10.1271 C.ar    1  UNL1        0.0647
      5 N          14.3870   39.6759   10.7819 N.ar    1  UNL1       -0.2120
      6 N          12.9174   40.7792    9.3147 N.ar    1  UNL1       -0.2179
      7 C          10.4981   40.9792    9.7344 C.3     1  UNL1        0.0603
      8 C          10.5792   42.1662    8.7709 C.3     1  UNL1        0.0094
      9 C           9.1786   42.6246    8.3717 C.3     1  UNL1        0.0220
     10 C           8.3822   42.9985    9.6174 C.3     1  UNL1        0.0937
     11 C           9.6630   41.3324   10.9666 C.3     1  UNL1        0.0996
     12 C           7.1600   41.3965   11.1551 C.2     1  UNL1        0.2563
     13 N           8.3724   41.8697   10.5442 N.am    1  UNL1       -0.2753
     14 O           7.2251   40.7892   12.2582 O.2     1  UNL1       -0.2693
     15 C           5.8361   41.5821   10.5158 C.ar    1  UNL1        0.0979
     16 C           5.4929   41.3018    9.1914 C.ar    1  UNL1        0.0704
     17 C           3.5132   42.1768    9.8600 C.ar    1  UNL1        0.1342
     18 C           6.4174   40.6771    8.2040 C.3     1  UNL1        0.0528
     19 N           4.2172   41.6247    8.8458 N.ar    1  UNL1       -0.2404
     20 S           4.4804   42.2757   11.2314 S.2     1  UNL1       -0.0603
     21 N          15.2541   40.6803    8.7413 N.pl3   1  UNL1       -0.2680
     22 H          15.9782   40.0167    8.6732 H       1  UNL1        0.1565
     23 C          15.7845   45.3818    5.5710 C.3     1  UNL1        0.0327
     24 C          15.6547   44.1570    6.4021 C.ar    1  UNL1       -0.0026
     25 C          14.5177   43.3537    6.3015 C.ar    1  UNL1        0.0960
     26 C          15.3826   41.8620    7.9415 C.ar    1  UNL1        0.1343
     27 C          16.5340   42.6444    8.0665 C.ar    1  UNL1        0.0342
     28 C          16.6681   43.7976    7.2913 C.ar    1  UNL1        0.0001
     29 N          14.4063   42.2339    7.0658 N.ar    1  UNL1       -0.2293
@<TRIPOS>BOND
     1    23    24    1
     2    25    29   ar
     3    26    27   ar
     4    26    21    1
     5    28    24   ar
     6     1     6   ar
     7     2     5   ar
     8     3     4   ar
     9     7     4    1
    10     7     8    1
    11     8     9    1
    12     9    10    1
    13    10    13    1
    14    11    13    1
    15    11     7    1
    16    12    15    1
    17    15    20   ar
    18    16    19   ar
    19    17    20   ar
    20    18    16    1
    21    21     1    1
    22    13    12   am
    23    24    25   ar
    24    26    29   ar
    25    27    28   ar
    26     1     5   ar
    27     2     3   ar
    28     4     6   ar
    29    12    14    2
    30    15    16   ar
    31    17    19   ar
    32    21    22    1
@<TRIPOS>MOLECULE
MolPort-020-295-331 MCULE-2719425301 PubChem-110267413
 29 32 0 0 0
SMALL
GASTEIGER

@<TRIPOS>ATOM
      1 C           5.0733   42.7581   19.5605 C.ar    1  UNL1        0.2214
      2 C           7.3370   43.0214   20.2014 C.ar    1  UNL1        0.1031
      3 C           7.7555   42.5506   18.9592 C.ar    1  UNL1        0.0356
      4 C           6.7821   42.1849   18.0228 C.ar    1  UNL1        0.0647
      5 N           6.0112   43.1167   20.4795 N.ar    1  UNL1       -0.2120
      6 N           5.4663   42.2968   18.3438 N.ar    1  UNL1       -0.2179
      7 C           7.1633   41.6731   16.6705 C.3     1  UNL1        0.0603
      8 C           7.9421   40.3592   16.7763 C.3     1  UNL1        0.0094
      9 C           8.3118   39.8460   15.3866 C.3     1  UNL1        0.0220
     10 C           9.1328   40.8980   14.6484 C.3     1  UNL1        0.0937
     11 C           7.9624   42.7200   15.8921 C.3     1  UNL1        0.0996
     12 C           8.2238   42.9093   13.4021 C.2     1  UNL1        0.2563
     13 N           8.3921   42.1565   14.6153 N.am    1  UNL1       -0.2753
     14 O           8.0285   44.1530   13.4737 O.2     1  UNL1       -0.2693
     15 C           8.2512   42.2634   12.0687 C.ar    1  UNL1        0.0979
     16 C           9.2892   42.3007   11.1352 C.ar    1  UNL1        0.0704
     17 C           7.7909   41.1280    9.9057 C.ar    1  UNL1        0.1342
     18 C          10.6066   42.9533   11.3777 C.3     1  UNL1        0.0528
     19 N           9.0289   41.6700    9.9582 N.ar    1  UNL1       -0.2404
     20 S           6.9813   41.4273   11.3482 S.2     1  UNL1       -0.0603
     21 N           3.6739   42.8576   19.8511 N.pl3   1  UNL1       -0.2680
     22 H           3.2693   42.1107   20.3488 H       1  UNL1        0.1565
     23 C           0.2080   47.1442   18.4198 C.3     1  UNL1        0.0327
     24 C           1.1052   46.0221   18.7987 C.ar    1  UNL1       -0.0026
     25 C           2.4050   45.9572   18.2942 C.ar    1  UNL1        0.0960
     26 C           2.8060   43.9381   19.4880 C.ar    1  UNL1        0.1343
     27 C           1.5103   43.9732   20.0108 C.ar    1  UNL1        0.0342
     28 C           0.6574   45.0222   19.6626 C.ar    1  UNL1        0.0001
     29 N           3.2204   44.9267   18.6458 N.ar    1  UNL1       -0.2293
@<TRIPOS>BOND
     1    23    24    1
     2    25    29   ar
     3    26    27   ar
     4    26    21    1
     5    28    24   ar
     6     1     6   ar
     7     2     5   ar
     8     3     4   ar
     9     7     4    1
    10     7     8    1
    11     8     9    1
    12     9    10    1
    13    10    13    1
    14    11    13    1
    15    11     7    1
    16    12    15    1
    17    15    20   ar
    18    16    19   ar
    19    17    20   ar
    20    18    16    1
    21    21     1    1
    22    13    12   am
    23    24    25   ar
    24    26    29   ar
    25    27    28   ar
    26     1     5   ar
    27     2     3   ar
    28     4     6   ar
    29    12    14    2
    30    15    16   ar
    31    17    19   ar
    32    21    22    1
