@<TRIPOS>MOLECULE
MolPort-035-771-294 Molport-051-903-133 44138102 MCULE-1368330722 MCULE-7034198557 PubChem-11454223 PubChem-11454224 PubChem-21874036 ZINC000044138102
 31 34 0 0 0
SMALL
GASTEIGER

@<TRIPOS>ATOM
      1 C           2.4093   42.0308   12.2303 C.2     1  UNL1        0.2506
      2 O           1.7929   40.9457   12.4130 O.2     1  UNL1       -0.2698
      3 N           1.9956   43.2217   12.9128 N.am    1  UNL1       -0.2646
      4 H           2.5945   44.0015   12.8641 H       1  UNL1        0.1566
      5 C          -1.6614   41.9519   15.7748 C.2     1  UNL1        0.4370
      6 C          -0.6897   44.1264   15.0498 C.ar    1  UNL1        0.0827
      7 C           0.3090   44.5287   14.2530 C.ar    1  UNL1        0.0422
      8 C           1.0381   45.6532   14.8685 C.3     1  UNL1        0.1000
      9 C          -0.7610   44.9638   16.2626 C.3     1  UNL1        0.1155
     10 C           0.7827   43.3704   13.6596 C.ar    1  UNL1        0.1531
     11 O          -2.4721   42.4678   16.5929 O.2     1  UNL1       -0.2211
     12 N          -0.8266   42.7876   14.9652 N.ar    1  UNL1       -0.1654
     13 N           0.2903   45.9834   16.0956 N.3     1  UNL1       -0.2886
     14 N           0.0684   42.3162   14.1074 N.ar    1  UNL1       -0.1454
     15 H          -0.1320   46.9077   16.0078 H       1  UNL1        0.1239
     16 O          -1.5787   40.5641   15.6439 O.3     1  UNL1       -0.4315
     17 C          -1.4778   38.6694   14.1791 C.3     1  UNL1        0.0513
     18 C          -2.2923   39.8608   14.6380 C.3     1  UNL1        0.2105
     19 C           3.5819   42.0665   11.3389 C.ar    1  UNL1        0.0538
     20 C           4.8135   41.5510   11.7649 C.ar    1  UNL1        0.0058
     21 C           5.9246   41.5840   10.9184 C.ar    1  UNL1        0.0147
     22 C           5.8257   42.1349    9.6305 C.ar    1  UNL1        0.0479
     23 C           4.5887   42.6467    9.2068 C.ar    1  UNL1        0.0147
     24 C           3.4777   42.6134   10.0534 C.ar    1  UNL1        0.0058
     25 C           8.2513   41.6011    9.1823 C.3     1  UNL1        0.1081
     26 C           8.9256   40.9103    7.9996 C.3     1  UNL1        0.0938
     27 C           7.6866   42.1697    6.4204 C.3     1  UNL1        0.0938
     28 C           6.9406   42.9333    7.5119 C.3     1  UNL1        0.1081
     29 C           9.6757   41.1140    5.7959 C.3     1  UNL1        0.0897
     30 N           6.9688   42.1616    8.7550 N.pl3   1  UNL1       -0.3046
     31 N           9.0349   41.8395    6.8771 N.3     1  UNL1       -0.2686
@<TRIPOS>BOND
     1    17    18    1
     2    18    16    1
     3     5    16    1
     4     5    12   am
     5     7    10   ar
     6     8     7    1
     7     8    13    1
     8     9    13    1
     9     9     6    1
    10    10     3    1
    11     1    19    1
    12    20    21   ar
    13    22    23   ar
    14    22    30    1
    15    24    19   ar
    16    25    30    1
    17    25    26    1
    18    26    31    1
    19    27    31    1
    20    27    28    1
    21    28    30    1
    22    29    31    1
    23    12     6   ar
    24    12    14   ar
    25     3     1   am
    26     5    11    2
    27     6     7   ar
    28    10    14   ar
    29     1     2    2
    30    19    20   ar
    31    21    22   ar
    32    23    24   ar
    33    13    15    1
    34     3     4    1
@<TRIPOS>MOLECULE
MolPort-035-771-294 Molport-051-903-133 44138102 MCULE-1368330722 MCULE-7034198557 PubChem-11454223 PubChem-11454224 PubChem-21874036 ZINC000044138102
 31 34 0 0 0
SMALL
GASTEIGER

@<TRIPOS>ATOM
      1 C           1.9064   42.1678   11.8694 C.2     1  UNL1        0.2506
      2 O           0.7856   42.1514   11.2913 O.2     1  UNL1       -0.2698
      3 N           1.9885   42.3962   13.2824 N.am    1  UNL1       -0.2646
      4 H           2.8601   42.2452   13.7145 H       1  UNL1        0.1566
      5 C          -1.3401   45.3695   15.0870 C.2     1  UNL1        0.4370
      6 C          -1.0109   42.9019   15.1110 C.ar    1  UNL1        0.0827
      7 C          -0.1037   42.0364   14.6396 C.ar    1  UNL1        0.0422
      8 C          -0.7699   40.8449   14.0815 C.3     1  UNL1        0.1000
      9 C          -2.3763   42.3647   14.9562 C.3     1  UNL1        0.1155
     10 C           0.9070   42.8260   14.1169 C.ar    1  UNL1        0.1531
     11 O          -2.4724   45.3288   15.6428 O.2     1  UNL1       -0.2211
     12 N          -0.5931   44.1642   14.8870 N.ar    1  UNL1       -0.1654
     13 N          -2.2038   41.0204   14.3764 N.3     1  UNL1       -0.2886
     14 N           0.5877   44.1268   14.2842 N.ar    1  UNL1       -0.1454
     15 H          -2.5115   40.3119   15.0425 H       1  UNL1        0.1239
     16 O          -0.8014   46.5893   14.6724 O.3     1  UNL1       -0.4315
     17 C           1.3373   47.3795   15.4123 C.3     1  UNL1        0.0513
     18 C          -0.1647   47.4763   15.5799 C.3     1  UNL1        0.2105
     19 C           3.1343   41.9155   11.0951 C.ar    1  UNL1        0.0538
     20 C           3.1828   42.2088    9.7255 C.ar    1  UNL1        0.0058
     21 C           4.3481   41.9706    8.9923 C.ar    1  UNL1        0.0147
     22 C           5.4864   41.4329    9.6143 C.ar    1  UNL1        0.0479
     23 C           5.4342   41.1443   10.9875 C.ar    1  UNL1        0.0147
     24 C           4.2689   41.3827   11.7206 C.ar    1  UNL1        0.0058
     25 C           6.6395   40.5133    7.5663 C.3     1  UNL1        0.1081
     26 C           7.6551   41.1445    6.6172 C.3     1  UNL1        0.0938
     27 C           8.9463   42.0120    8.4048 C.3     1  UNL1        0.0938
     28 C           8.0052   41.4310    9.4573 C.3     1  UNL1        0.1081
     29 C           9.8847   41.7574    6.2799 C.3     1  UNL1        0.0897
     30 N           6.6901   41.1949    8.8604 N.pl3   1  UNL1       -0.3046
     31 N           8.9805   41.1402    7.2326 N.3     1  UNL1       -0.2686
@<TRIPOS>BOND
     1    17    18    1
     2    18    16    1
     3     5    16    1
     4     5    12   am
     5     7    10   ar
     6     8     7    1
     7     8    13    1
     8     9    13    1
     9     9     6    1
    10    10     3    1
    11     1    19    1
    12    20    21   ar
    13    22    23   ar
    14    22    30    1
    15    24    19   ar
    16    25    30    1
    17    25    26    1
    18    26    31    1
    19    27    31    1
    20    27    28    1
    21    28    30    1
    22    29    31    1
    23    12     6   ar
    24    12    14   ar
    25     3     1   am
    26     5    11    2
    27     6     7   ar
    28    10    14   ar
    29     1     2    2
    30    19    20   ar
    31    21    22   ar
    32    23    24   ar
    33    13    15    1
    34     3     4    1
@<TRIPOS>MOLECULE
MolPort-035-771-294 Molport-051-903-133 44138102 MCULE-1368330722 MCULE-7034198557 PubChem-11454223 PubChem-11454224 PubChem-21874036 ZINC000044138102
 31 34 0 0 0
SMALL
GASTEIGER

@<TRIPOS>ATOM
      1 C           2.9532   41.7712   11.0073 C.2     1  UNL1        0.2506
      2 O           2.5835   40.8640   10.2129 O.2     1  UNL1       -0.2698
      3 N           4.1751   42.4838   10.7735 N.am    1  UNL1       -0.2646
      4 H           4.3448   43.2823   11.3237 H       1  UNL1        0.1566
      5 C           6.8043   42.8226    6.7548 C.2     1  UNL1        0.4370
      6 C           7.0669   41.6075    8.9119 C.ar    1  UNL1        0.0827
      7 C           6.3645   41.4720   10.0443 C.ar    1  UNL1        0.0422
      8 C           7.2607   41.5151   11.2147 C.3     1  UNL1        0.1000
      9 C           8.5098   41.7146    9.2009 C.3     1  UNL1        0.1155
     10 C           5.1692   42.1296    9.8054 C.ar    1  UNL1        0.1531
     11 O           7.9431   42.5021    6.3155 O.2     1  UNL1       -0.2211
     12 N           6.3521   42.3191    8.0168 N.ar    1  UNL1       -0.1654
     13 N           8.6270   41.5707   10.6632 N.3     1  UNL1       -0.2886
     14 N           5.1821   42.6367    8.5546 N.ar    1  UNL1       -0.1454
     15 H           9.1289   40.7120   10.8895 H       1  UNL1        0.1239
     16 O           5.9717   43.6611    6.0107 O.3     1  UNL1       -0.4315
     17 C           5.0575   44.6378    7.9996 C.3     1  UNL1        0.0513
     18 C           5.4375   44.8605    6.5507 C.3     1  UNL1        0.2105
     19 C           2.1078   42.1247   12.1610 C.ar    1  UNL1        0.0538
     20 C           2.6892   42.4522   13.3934 C.ar    1  UNL1        0.0058
     21 C           1.8867   42.7887   14.4865 C.ar    1  UNL1        0.0147
     22 C           0.4875   42.8023   14.3687 C.ar    1  UNL1        0.0479
     23 C          -0.0902   42.4771   13.1308 C.ar    1  UNL1        0.0147
     24 C           0.7124   42.1409   12.0377 C.ar    1  UNL1        0.0058
     25 C          -1.7948   43.0196   15.4238 C.3     1  UNL1        0.1081
     26 C          -2.3270   42.5426   16.7728 C.3     1  UNL1        0.0938
     27 C          -0.4162   43.3366   17.9277 C.3     1  UNL1        0.0938
     28 C           0.2265   43.8595   16.6453 C.3     1  UNL1        0.1081
     29 C          -2.4078   42.9209   19.0773 C.3     1  UNL1        0.0897
     30 N          -0.3394   43.1570   15.4931 N.pl3   1  UNL1       -0.3046
     31 N          -1.8708   43.4392   17.8327 N.3     1  UNL1       -0.2686
@<TRIPOS>BOND
     1    17    18    1
     2    18    16    1
     3     5    16    1
     4     5    12   am
     5     7    10   ar
     6     8     7    1
     7     8    13    1
     8     9    13    1
     9     9     6    1
    10    10     3    1
    11     1    19    1
    12    20    21   ar
    13    22    23   ar
    14    22    30    1
    15    24    19   ar
    16    25    30    1
    17    25    26    1
    18    26    31    1
    19    27    31    1
    20    27    28    1
    21    28    30    1
    22    29    31    1
    23    12     6   ar
    24    12    14   ar
    25     3     1   am
    26     5    11    2
    27     6     7   ar
    28    10    14   ar
    29     1     2    2
    30    19    20   ar
    31    21    22   ar
    32    23    24   ar
    33    13    15    1
    34     3     4    1
@<TRIPOS>MOLECULE
MolPort-035-771-294 Molport-051-903-133 44138102 MCULE-1368330722 MCULE-7034198557 PubChem-11454223 PubChem-11454224 PubChem-21874036 ZINC000044138102
 31 34 0 0 0
SMALL
GASTEIGER

@<TRIPOS>ATOM
      1 C           3.2965   42.4424   10.8682 C.2     1  UNL1        0.2506
      2 O           2.4920   42.8267    9.9761 O.2     1  UNL1       -0.2698
      3 N           2.8516   42.2765   12.2209 N.am    1  UNL1       -0.2646
      4 H           3.4653   41.8281   12.8466 H       1  UNL1        0.1566
      5 C          -1.6683   41.9028   13.8359 C.2     1  UNL1        0.4370
      6 C           0.0976   43.6512   13.9877 C.ar    1  UNL1        0.0827
      7 C           1.3536   43.8066   13.5489 C.ar    1  UNL1        0.0422
      8 C           2.1937   44.4157   14.5968 C.3     1  UNL1        0.1000
      9 C          -0.0462   44.1763   15.3590 C.3     1  UNL1        0.1155
     10 C           1.5878   42.7093   12.7369 C.ar    1  UNL1        0.1531
     11 O          -2.4724   42.5002   14.6035 O.2     1  UNL1       -0.2211
     12 N          -0.4217   42.5134   13.4837 N.ar    1  UNL1       -0.1654
     13 N           1.2736   44.7352   15.7037 N.3     1  UNL1       -0.2886
     14 N           0.4840   41.9329   12.7080 N.ar    1  UNL1       -0.1454
     15 H           1.2043   45.7464   15.8179 H       1  UNL1        0.1239
     16 O          -1.9907   40.6479   13.3151 O.3     1  UNL1       -0.4315
     17 C          -1.7021   39.5815   15.4424 C.3     1  UNL1        0.0513
     18 C          -2.4700   39.5943   14.1372 C.3     1  UNL1        0.2105
     19 C           4.6911   42.1282   10.5114 C.ar    1  UNL1        0.0538
     20 C           5.6181   41.7855   11.5050 C.ar    1  UNL1        0.0058
     21 C           6.9401   41.4864   11.1657 C.ar    1  UNL1        0.0147
     22 C           7.3606   41.5259    9.8266 C.ar    1  UNL1        0.0479
     23 C           6.4272   41.8661    8.8342 C.ar    1  UNL1        0.0147
     24 C           5.1053   42.1650    9.1737 C.ar    1  UNL1        0.0058
     25 C           9.8307   41.6253   10.3348 C.3     1  UNL1        0.1081
     26 C          10.8963   40.5323   10.3564 C.3     1  UNL1        0.0938
     27 C          10.1539   39.6194    8.2995 C.3     1  UNL1        0.0938
     28 C           9.0453   40.6598    8.1590 C.3     1  UNL1        0.1081
     29 C          12.3040   39.1612    9.0919 C.3     1  UNL1        0.0897
     30 N           8.7211   41.2097    9.4758 N.pl3   1  UNL1       -0.3046
     31 N          11.3006   40.2048    8.9908 N.3     1  UNL1       -0.2686
@<TRIPOS>BOND
     1    17    18    1
     2    18    16    1
     3     5    16    1
     4     5    12   am
     5     7    10   ar
     6     8     7    1
     7     8    13    1
     8     9    13    1
     9     9     6    1
    10    10     3    1
    11     1    19    1
    12    20    21   ar
    13    22    23   ar
    14    22    30    1
    15    24    19   ar
    16    25    30    1
    17    25    26    1
    18    26    31    1
    19    27    31    1
    20    27    28    1
    21    28    30    1
    22    29    31    1
    23    12     6   ar
    24    12    14   ar
    25     3     1   am
    26     5    11    2
    27     6     7   ar
    28    10    14   ar
    29     1     2    2
    30    19    20   ar
    31    21    22   ar
    32    23    24   ar
    33    13    15    1
    34     3     4    1
@<TRIPOS>MOLECULE
MolPort-035-771-294 Molport-051-903-133 44138102 MCULE-1368330722 MCULE-7034198557 PubChem-11454223 PubChem-11454224 PubChem-21874036 ZINC000044138102
 31 34 0 0 0
SMALL
GASTEIGER

@<TRIPOS>ATOM
      1 C           6.5832   41.1453    9.5101 C.2     1  UNL1        0.2506
      2 O           5.8939   40.7114    8.5470 O.2     1  UNL1       -0.2698
      3 N           5.9812   41.3538   10.7944 N.am    1  UNL1       -0.2646
      4 H           6.5834   41.5405   11.5506 H       1  UNL1        0.1566
      5 C           1.7532   42.7521   12.6234 C.2     1  UNL1        0.4370
      6 C           2.4350   41.2128   10.7893 C.ar    1  UNL1        0.0827
      7 C           3.5865   40.7847   10.2556 C.ar    1  UNL1        0.0422
      8 C           3.4849   40.7327    8.7853 C.3     1  UNL1        0.1000
      9 C           1.4285   41.4534    9.7376 C.3     1  UNL1        0.1155
     10 C           4.5762   41.3128   11.0680 C.ar    1  UNL1        0.1531
     11 O           0.5184   42.6675   12.3767 O.2     1  UNL1       -0.2211
     12 N           2.6920   41.9745   11.8719 N.ar    1  UNL1       -0.1654
     13 N           2.0823   41.0647    8.4750 N.3     1  UNL1       -0.2886
     14 N           4.0042   42.0345   12.0549 N.ar    1  UNL1       -0.1454
     15 H           1.6124   40.2523    8.0754 H       1  UNL1        0.1239
     16 O           2.2137   43.5950   13.6370 O.3     1  UNL1       -0.4315
     17 C           0.5862   45.1508   14.4594 C.3     1  UNL1        0.0513
     18 C           1.4145   43.9202   14.7644 C.3     1  UNL1        0.2105
     19 C           8.0214   41.4050    9.3237 C.ar    1  UNL1        0.0538
     20 C           8.7707   42.0125   10.3403 C.ar    1  UNL1        0.0058
     21 C          10.1349   42.2572   10.1633 C.ar    1  UNL1        0.0147
     22 C          10.7754   41.9006    8.9656 C.ar    1  UNL1        0.0479
     23 C          10.0213   41.2888    7.9514 C.ar    1  UNL1        0.0147
     24 C           8.6572   41.0440    8.1287 C.ar    1  UNL1        0.0058
     25 C          13.1780   41.2148    9.3209 C.3     1  UNL1        0.1081
     26 C          14.3438   41.0965    8.3423 C.3     1  UNL1        0.0938
     27 C          13.8526   43.1862    7.3387 C.3     1  UNL1        0.0938
     28 C          12.6584   43.4253    8.2594 C.3     1  UNL1        0.1081
     29 C          15.9729   42.2308    7.1094 C.3     1  UNL1        0.0897
     30 N          12.1832   42.1454    8.7862 N.pl3   1  UNL1       -0.3046
     31 N          14.8797   42.4230    8.0444 N.3     1  UNL1       -0.2686
@<TRIPOS>BOND
     1    17    18    1
     2    18    16    1
     3     5    16    1
     4     5    12   am
     5     7    10   ar
     6     8     7    1
     7     8    13    1
     8     9    13    1
     9     9     6    1
    10    10     3    1
    11     1    19    1
    12    20    21   ar
    13    22    23   ar
    14    22    30    1
    15    24    19   ar
    16    25    30    1
    17    25    26    1
    18    26    31    1
    19    27    31    1
    20    27    28    1
    21    28    30    1
    22    29    31    1
    23    12     6   ar
    24    12    14   ar
    25     3     1   am
    26     5    11    2
    27     6     7   ar
    28    10    14   ar
    29     1     2    2
    30    19    20   ar
    31    21    22   ar
    32    23    24   ar
    33    13    15    1
    34     3     4    1
@<TRIPOS>MOLECULE
MolPort-035-771-294 Molport-051-903-133 44138102 MCULE-1368330722 MCULE-7034198557 PubChem-11454223 PubChem-11454224 PubChem-21874036 ZINC000044138102
 31 34 0 0 0
SMALL
GASTEIGER

@<TRIPOS>ATOM
      1 C           3.5528   42.1069   11.1064 C.2     1  UNL1        0.2506
      2 O           3.2487   42.0401    9.8842 O.2     1  UNL1       -0.2698
      3 N           4.9236   42.0174   11.5168 N.am    1  UNL1       -0.2646
      4 H           5.1289   42.2307   12.4557 H       1  UNL1        0.1566
      5 C           7.5209   41.6599    7.4791 C.2     1  UNL1        0.4370
      6 C           8.0238   41.3997    9.9035 C.ar    1  UNL1        0.0827
      7 C           7.3402   41.4754   11.0528 C.ar    1  UNL1        0.0422
      8 C           8.1348   42.1745   12.0798 C.3     1  UNL1        0.1000
      9 C           9.3625   42.0027   10.0503 C.3     1  UNL1        0.1155
     10 C           6.0188   41.6433   10.6734 C.ar    1  UNL1        0.1531
     11 O           8.7220   41.5410    7.1103 O.2     1  UNL1       -0.2211
     12 N           7.1759   41.5224    8.8622 N.ar    1  UNL1       -0.1654
     13 N           9.4516   42.4168   11.4622 N.3     1  UNL1       -0.2886
     14 N           5.9415   41.6642    9.3259 N.ar    1  UNL1       -0.1454
     15 H          10.1668   41.8695   11.9411 H       1  UNL1        0.1239
     16 O           6.5174   41.9155    6.5422 O.3     1  UNL1       -0.4315
     17 C           6.5980   44.2637    7.0167 C.3     1  UNL1        0.0513
     18 C           6.3345   43.2017    5.9697 C.3     1  UNL1        0.2105
     19 C           2.4980   42.3137   12.1140 C.ar    1  UNL1        0.0538
     20 C           2.3736   43.5465   12.7689 C.ar    1  UNL1        0.0058
     21 C           1.3721   43.7423   13.7233 C.ar    1  UNL1        0.0147
     22 C           0.4770   42.7084   14.0423 C.ar    1  UNL1        0.0479
     23 C           0.6032   41.4762   13.3808 C.ar    1  UNL1        0.0147
     24 C           1.6047   41.2808   12.4263 C.ar    1  UNL1        0.0058
     25 C          -1.1741   41.7758   15.7077 C.3     1  UNL1        0.1081
     26 C          -1.4539   42.1493   17.1612 C.3     1  UNL1        0.0938
     27 C          -1.4539   44.4689   16.6768 C.3     1  UNL1        0.0938
     28 C          -1.1741   44.2295   15.1952 C.3     1  UNL1        0.1081
     29 C          -2.4722   43.6643   18.6202 C.3     1  UNL1        0.0897
     30 N          -0.5604   42.9126   15.0201 N.pl3   1  UNL1       -0.3046
     31 N          -2.2538   43.3711   17.2157 N.3     1  UNL1       -0.2686
@<TRIPOS>BOND
     1    17    18    1
     2    18    16    1
     3     5    16    1
     4     5    12   am
     5     7    10   ar
     6     8     7    1
     7     8    13    1
     8     9    13    1
     9     9     6    1
    10    10     3    1
    11     1    19    1
    12    20    21   ar
    13    22    23   ar
    14    22    30    1
    15    24    19   ar
    16    25    30    1
    17    25    26    1
    18    26    31    1
    19    27    31    1
    20    27    28    1
    21    28    30    1
    22    29    31    1
    23    12     6   ar
    24    12    14   ar
    25     3     1   am
    26     5    11    2
    27     6     7   ar
    28    10    14   ar
    29     1     2    2
    30    19    20   ar
    31    21    22   ar
    32    23    24   ar
    33    13    15    1
    34     3     4    1
@<TRIPOS>MOLECULE
MolPort-035-771-294 Molport-051-903-133 44138102 MCULE-1368330722 MCULE-7034198557 PubChem-11454223 PubChem-11454224 PubChem-21874036 ZINC000044138102
 31 34 0 0 0
SMALL
GASTEIGER

@<TRIPOS>ATOM
      1 C           9.5261   40.8278    6.3868 C.2     1  UNL1        0.2506
      2 O          10.4027   41.6957    6.6496 O.2     1  UNL1       -0.2698
      3 N           8.1567   41.0500    6.7484 N.am    1  UNL1       -0.2646
      4 H           7.4871   40.4250    6.3875 H       1  UNL1        0.1566
      5 C           8.3895   44.9100    9.6160 C.2     1  UNL1        0.4370
      6 C           6.5753   43.8198    8.3051 C.ar    1  UNL1        0.0827
      7 C           6.4582   42.7481    7.5102 C.ar    1  UNL1        0.0422
      8 C           5.6225   43.0656    6.3373 C.3     1  UNL1        0.1000
      9 C           5.7984   44.9547    7.7710 C.3     1  UNL1        0.1155
     10 C           7.6828   42.1061    7.5914 C.ar    1  UNL1        0.1531
     11 O           7.6865   45.8984    9.9644 O.2     1  UNL1       -0.2211
     12 N           7.8098   43.8502    8.8470 N.ar    1  UNL1       -0.1654
     13 N           5.1301   44.4368    6.5635 N.3     1  UNL1       -0.2886
     14 N           8.4937   42.7970    8.4203 N.ar    1  UNL1       -0.1454
     15 H           4.1197   44.4253    6.7027 H       1  UNL1        0.1239
     16 O           9.7340   44.8354    9.9857 O.3     1  UNL1       -0.4315
     17 C          11.2467   43.0076    9.6445 C.3     1  UNL1        0.0513
     18 C          10.2811   43.6779   10.5993 C.3     1  UNL1        0.2105
     19 C           9.9052   39.5960    5.6729 C.ar    1  UNL1        0.0538
     20 C          11.0490   39.5678    4.8637 C.ar    1  UNL1        0.0058
     21 C          11.4086   38.3987    4.1882 C.ar    1  UNL1        0.0147
     22 C          10.6301   37.2362    4.3076 C.ar    1  UNL1        0.0479
     23 C           9.4871   37.2682    5.1225 C.ar    1  UNL1        0.0147
     24 C           9.1278   38.4373    5.7981 C.ar    1  UNL1        0.0058
     25 C          12.4098   35.6309    3.5167 C.3     1  UNL1        0.1081
     26 C          12.5203   34.1134    3.6411 C.3     1  UNL1        0.0938
     27 C          10.2667   33.7885    2.9848 C.3     1  UNL1        0.0938
     28 C          10.0259   35.2873    2.8224 C.3     1  UNL1        0.1081
     29 C          11.8076   32.0376    2.8388 C.3     1  UNL1        0.0897
     30 N          11.0051   36.0289    3.6179 N.pl3   1  UNL1       -0.3046
     31 N          11.6543   33.4691    2.6561 N.3     1  UNL1       -0.2686
@<TRIPOS>BOND
     1    17    18    1
     2    18    16    1
     3     5    16    1
     4     5    12   am
     5     7    10   ar
     6     8     7    1
     7     8    13    1
     8     9    13    1
     9     9     6    1
    10    10     3    1
    11     1    19    1
    12    20    21   ar
    13    22    23   ar
    14    22    30    1
    15    24    19   ar
    16    25    30    1
    17    25    26    1
    18    26    31    1
    19    27    31    1
    20    27    28    1
    21    28    30    1
    22    29    31    1
    23    12     6   ar
    24    12    14   ar
    25     3     1   am
    26     5    11    2
    27     6     7   ar
    28    10    14   ar
    29     1     2    2
    30    19    20   ar
    31    21    22   ar
    32    23    24   ar
    33    13    15    1
    34     3     4    1
@<TRIPOS>MOLECULE
MolPort-035-771-294 Molport-051-903-133 44138102 MCULE-1368330722 MCULE-7034198557 PubChem-11454223 PubChem-11454224 PubChem-21874036 ZINC000044138102
 31 34 0 0 0
SMALL
GASTEIGER

@<TRIPOS>ATOM
      1 C          11.9109   40.9057    9.9621 C.2     1  UNL1        0.2506
      2 O          12.5406   40.5709   11.0023 O.2     1  UNL1       -0.2698
      3 N          12.6004   41.0478    8.7132 N.am    1  UNL1       -0.2646
      4 H          12.0509   41.1548    7.9034 H       1  UNL1        0.1566
      5 C          17.0224   42.8619    8.1372 C.2     1  UNL1        0.4370
      6 C          16.1246   40.6577    8.8678 C.ar    1  UNL1        0.0827
      7 C          14.9154   40.1050    9.0307 C.ar    1  UNL1        0.0422
      8 C          14.8786   39.3013   10.2667 C.3     1  UNL1        0.1000
      9 C          17.0365   40.2505    9.9538 C.3     1  UNL1        0.1155
     10 C          14.0227   41.0468    8.5466 C.ar    1  UNL1        0.1531
     11 O          18.2256   42.5705    8.3820 O.2     1  UNL1       -0.2211
     12 N          15.9935   41.8826    8.3194 N.ar    1  UNL1       -0.1654
     13 N          16.2565   39.3214   10.7912 N.3     1  UNL1       -0.2886
     14 N          14.7065   42.1262    8.1114 N.ar    1  UNL1       -0.1454
     15 H          16.6609   38.3863   10.7433 H       1  UNL1        0.1239
     16 O          16.6850   44.1363    7.6768 O.3     1  UNL1       -0.4315
     17 C          15.2884   44.9265    5.8961 C.3     1  UNL1        0.0513
     18 C          16.6719   44.4561    6.2936 C.3     1  UNL1        0.2105
     19 C          10.4541   41.1171   10.0233 C.ar    1  UNL1        0.0538
     20 C           9.6673   40.9770    8.8720 C.ar    1  UNL1        0.0058
     21 C           8.2857   41.1763    8.9312 C.ar    1  UNL1        0.0147
     22 C           7.6646   41.5211   10.1425 C.ar    1  UNL1        0.0479
     23 C           8.4565   41.6566   11.2941 C.ar    1  UNL1        0.0147
     24 C           9.8382   41.4571   11.2347 C.ar    1  UNL1        0.0058
     25 C           5.5941   42.7660    9.4130 C.3     1  UNL1        0.1081
     26 C           4.2471   42.2616    8.9012 C.3     1  UNL1        0.0938
     27 C           4.0947   40.6199   10.6032 C.3     1  UNL1        0.0938
     28 C           5.4330   41.0294   11.2134 C.3     1  UNL1        0.1081
     29 C           2.1820   41.3204    9.4580 C.3     1  UNL1        0.0897
     30 N           6.2395   41.7185   10.2054 N.pl3   1  UNL1       -0.3046
     31 N           3.4360   41.7868   10.0202 N.3     1  UNL1       -0.2686
@<TRIPOS>BOND
     1    17    18    1
     2    18    16    1
     3     5    16    1
     4     5    12   am
     5     7    10   ar
     6     8     7    1
     7     8    13    1
     8     9    13    1
     9     9     6    1
    10    10     3    1
    11     1    19    1
    12    20    21   ar
    13    22    23   ar
    14    22    30    1
    15    24    19   ar
    16    25    30    1
    17    25    26    1
    18    26    31    1
    19    27    31    1
    20    27    28    1
    21    28    30    1
    22    29    31    1
    23    12     6   ar
    24    12    14   ar
    25     3     1   am
    26     5    11    2
    27     6     7   ar
    28    10    14   ar
    29     1     2    2
    30    19    20   ar
    31    21    22   ar
    32    23    24   ar
    33    13    15    1
    34     3     4    1
@<TRIPOS>MOLECULE
MolPort-035-771-294 Molport-051-903-133 44138102 MCULE-1368330722 MCULE-7034198557 PubChem-11454223 PubChem-11454224 PubChem-21874036 ZINC000044138102
 31 34 0 0 0
SMALL
GASTEIGER

@<TRIPOS>ATOM
      1 C          14.1373   37.2526   10.0967 C.2     1  UNL1        0.2506
      2 O          14.2239   36.4922   11.0993 O.2     1  UNL1       -0.2698
      3 N          15.0514   37.1123    9.0012 N.am    1  UNL1       -0.2646
      4 H          14.8517   37.6155    8.1790 H       1  UNL1        0.1566
      5 C          18.3079   33.9741    7.3509 C.2     1  UNL1        0.4370
      6 C          18.2989   35.6890    9.1557 C.ar    1  UNL1        0.0827
      7 C          17.4227   36.5692    9.6574 C.ar    1  UNL1        0.0422
      8 C          18.0883   37.8547    9.9395 C.3     1  UNL1        0.1000
      9 C          19.6503   36.2772    9.0869 C.3     1  UNL1        0.1155
     10 C          16.2312   36.3006    9.0046 C.ar    1  UNL1        0.1531
     11 O          19.5322   33.6956    7.4781 O.2     1  UNL1       -0.2211
     12 N          17.6893   34.9177    8.2327 N.ar    1  UNL1       -0.1654
     13 N          19.5190   37.6264    9.6660 N.3     1  UNL1       -0.2886
     14 N          16.4172   35.2813    8.1395 N.ar    1  UNL1       -0.1454
     15 H          20.0531   37.6866   10.5328 H       1  UNL1        0.1239
     16 O          17.5438   33.3577    6.3577 O.3     1  UNL1       -0.4315
     17 C          16.0785   33.5993    4.4762 C.3     1  UNL1        0.0513
     18 C          17.4529   33.8868    5.0434 C.3     1  UNL1        0.2105
     19 C          13.0695   38.2659   10.0354 C.ar    1  UNL1        0.0538
     20 C          13.2926   39.5624   10.5185 C.ar    1  UNL1        0.0058
     21 C          12.2799   40.5231   10.4587 C.ar    1  UNL1        0.0147
     22 C          11.0243   40.2053    9.9162 C.ar    1  UNL1        0.0479
     23 C          10.8068   38.9060    9.4299 C.ar    1  UNL1        0.0147
     24 C          11.8197   37.9455    9.4897 C.ar    1  UNL1        0.0058
     25 C           9.7819   42.1479   10.9418 C.3     1  UNL1        0.1081
     26 C           9.4029   43.5118   10.3702 C.3     1  UNL1        0.0938
     27 C           8.6362   42.5659    8.3373 C.3     1  UNL1        0.0938
     28 C           8.9709   41.1472    8.7914 C.3     1  UNL1        0.1081
     29 C           7.9507   44.7051    8.9817 C.3     1  UNL1        0.0897
     30 N           9.9831   41.1977    9.8471 N.pl3   1  UNL1       -0.3046
     31 N           8.2456   43.3774    9.4881 N.3     1  UNL1       -0.2686
@<TRIPOS>BOND
     1    17    18    1
     2    18    16    1
     3     5    16    1
     4     5    12   am
     5     7    10   ar
     6     8     7    1
     7     8    13    1
     8     9    13    1
     9     9     6    1
    10    10     3    1
    11     1    19    1
    12    20    21   ar
    13    22    23   ar
    14    22    30    1
    15    24    19   ar
    16    25    30    1
    17    25    26    1
    18    26    31    1
    19    27    31    1
    20    27    28    1
    21    28    30    1
    22    29    31    1
    23    12     6   ar
    24    12    14   ar
    25     3     1   am
    26     5    11    2
    27     6     7   ar
    28    10    14   ar
    29     1     2    2
    30    19    20   ar
    31    21    22   ar
    32    23    24   ar
    33    13    15    1
    34     3     4    1
@<TRIPOS>MOLECULE
MolPort-035-771-294 Molport-051-903-133 44138102 MCULE-1368330722 MCULE-7034198557 PubChem-11454223 PubChem-11454224 PubChem-21874036 ZINC000044138102
 31 34 0 0 0
SMALL
GASTEIGER

@<TRIPOS>ATOM
      1 C           9.3366   41.9899    9.7988 C.2     1  UNL1        0.2506
      2 O           9.2488   42.9959    9.0431 O.2     1  UNL1       -0.2698
      3 N           8.1595   41.4252   10.3912 N.am    1  UNL1       -0.2646
      4 H           8.2536   40.5551   10.8420 H       1  UNL1        0.1566
      5 C           4.3417   43.7642    8.6220 C.2     1  UNL1        0.4370
      6 C           4.7238   42.2920   10.5930 C.ar    1  UNL1        0.0827
      7 C           5.7596   41.6341   11.1300 C.ar    1  UNL1        0.0422
      8 C           5.3396   40.2958   11.5855 C.3     1  UNL1        0.1000
      9 C           3.4932   41.4815   10.6688 C.3     1  UNL1        0.1155
     10 C           6.8581   42.0226   10.3812 C.ar    1  UNL1        0.1531
     11 O           3.0941   43.8461    8.7936 O.2     1  UNL1       -0.2211
     12 N           5.1511   43.0443    9.5587 N.ar    1  UNL1       -0.1654
     13 N           3.8807   40.2483   11.3772 N.3     1  UNL1       -0.2886
     14 N           6.4618   42.8911    9.4268 N.ar    1  UNL1       -0.1454
     15 H           3.4020   40.1984   12.2765 H       1  UNL1        0.1239
     16 O           4.9448   44.3828    7.5249 O.3     1  UNL1       -0.4315
     17 C           7.0376   43.9286    6.4481 C.3     1  UNL1        0.0513
     18 C           5.5522   43.6356    6.4816 C.3     1  UNL1        0.2105
     19 C          10.6506   41.3708   10.0454 C.ar    1  UNL1        0.0538
     20 C          10.8804   40.6354   11.2160 C.ar    1  UNL1        0.0058
     21 C          12.1264   40.0473   11.4483 C.ar    1  UNL1        0.0147
     22 C          13.1667   40.1849   10.5153 C.ar    1  UNL1        0.0479
     23 C          12.9305   40.9195    9.3421 C.ar    1  UNL1        0.0147
     24 C          11.6844   41.5073    9.1099 C.ar    1  UNL1        0.0058
     25 C          14.6551   38.6882   11.8989 C.3     1  UNL1        0.1081
     26 C          15.5729   37.5364   11.4972 C.3     1  UNL1        0.0938
     27 C          16.4900   38.7579    9.6856 C.3     1  UNL1        0.0938
     28 C          15.6251   39.9805    9.9825 C.3     1  UNL1        0.1081
     29 C          17.6256   36.9162   10.5685 C.3     1  UNL1        0.0897
     30 N          14.4485   39.5721   10.7509 N.pl3   1  UNL1       -0.3046
     31 N          16.8125   38.0627   10.9298 N.3     1  UNL1       -0.2686
@<TRIPOS>BOND
     1    17    18    1
     2    18    16    1
     3     5    16    1
     4     5    12   am
     5     7    10   ar
     6     8     7    1
     7     8    13    1
     8     9    13    1
     9     9     6    1
    10    10     3    1
    11     1    19    1
    12    20    21   ar
    13    22    23   ar
    14    22    30    1
    15    24    19   ar
    16    25    30    1
    17    25    26    1
    18    26    31    1
    19    27    31    1
    20    27    28    1
    21    28    30    1
    22    29    31    1
    23    12     6   ar
    24    12    14   ar
    25     3     1   am
    26     5    11    2
    27     6     7   ar
    28    10    14   ar
    29     1     2    2
    30    19    20   ar
    31    21    22   ar
    32    23    24   ar
    33    13    15    1
    34     3     4    1
