@<TRIPOS>MOLECULE
MolPort-039-218-911 299761789 MCULE-6935341986 ZINC000299761789
 28 30 0 0 0
SMALL
GASTEIGER

@<TRIPOS>ATOM
      1 N          10.2672   41.5822    5.2845 N.am    1  UNL1       -0.2819
      2 N          12.4724   42.5426    5.8273 N.am    1  UNL1       -0.2682
      3 C          11.5166   41.4845    5.9710 C.2     1  UNL1        0.3048
      4 O          11.7679   40.4770    6.6862 O.2     1  UNL1       -0.2525
      5 H          10.1073   42.3630    4.7065 H       1  UNL1        0.1514
      6 H          12.2150   43.2927    5.2438 H       1  UNL1        0.1564
      7 C          13.7646   42.6233    6.4442 C.ar    1  UNL1        0.0546
      8 C          14.7207   43.5697    6.0458 C.ar    1  UNL1        0.0149
      9 C          15.9700   43.6173    6.6689 C.ar    1  UNL1        0.0044
     10 C          16.2721   42.7188    7.6948 C.ar    1  UNL1        0.0370
     11 C          15.3237   41.7677    8.1034 C.ar    1  UNL1        0.1396
     12 C          14.0761   41.7271    7.4725 C.ar    1  UNL1        0.0516
     13 O          15.5952   40.8519    9.1257 O.3     1  UNL1       -0.4791
     14 C          14.7514   39.7454    9.4261 C.3     1  UNL1        0.1659
     15 C          15.5173   38.7006   10.2250 C.3     1  UNL1        0.0435
     16 C          14.8960   38.6688   11.6048 C.3     1  UNL1        0.0038
     17 C          13.4978   39.2087   11.4270 C.3     1  UNL1        0.0038
     18 C          13.6036   40.2119   10.3013 C.3     1  UNL1        0.0435
     19 C           9.2200   40.5772    5.4028 C.3     1  UNL1        0.1591
     20 N          10.1377   36.2002    3.4933 N.pl3   1  UNL1       -0.3278
     21 N           9.7537   38.2020    4.8280 N.ar    1  UNL1       -0.1960
     22 N           9.3739   39.5945    3.1088 N.ar    1  UNL1       -0.1538
     23 N           9.6170   38.4020    2.5939 N.ar    1  UNL1       -0.2468
     24 C           9.8422   37.5842    3.6358 C.ar    1  UNL1        0.2086
     25 C           9.4654   39.4614    4.4452 C.ar    1  UNL1        0.1811
     26 H          10.1907   35.7980    2.5962 H       1  UNL1        0.1451
     27 H          10.2892   35.6444    4.2916 H       1  UNL1        0.1451
     28 H           9.6303   38.1613    1.6393 H       1  UNL1        0.1918
@<TRIPOS>BOND
     1    20    24    1
     2     1     3   am
     3     2     7    1
     4    23    22   ar
     5    23    24   ar
     6    25    21   ar
     7    19    25    1
     8    19     1    1
     9     3     2   am
    10     8     9   ar
    11    10    11   ar
    12    11    13    1
    13    14    13    1
    14    14    15    1
    15    15    16    1
    16    16    17    1
    17    17    18    1
    18    18    14    1
    19    12     7   ar
    20    24    21   ar
    21    25    22   ar
    22     3     4    2
    23     7     8   ar
    24     9    10   ar
    25    11    12   ar
    26    20    26    1
    27    20    27    1
    28     1     5    1
    29     2     6    1
    30    23    28    1
@<TRIPOS>MOLECULE
MolPort-039-218-911 299761789 MCULE-6935341986 ZINC000299761789
 28 30 0 0 0
SMALL
GASTEIGER

@<TRIPOS>ATOM
      1 N          12.3004   40.9113    7.6159 N.am    1  UNL1       -0.2819
      2 N           9.8717   41.2763    7.8355 N.am    1  UNL1       -0.2682
      3 C          11.2135   41.6741    8.1438 C.2     1  UNL1        0.3048
      4 O          11.4408   42.6831    8.8650 O.2     1  UNL1       -0.2525
      5 H          12.0980   40.1471    7.0291 H       1  UNL1        0.1514
      6 H           9.7682   40.4865    7.2569 H       1  UNL1        0.1564
      7 C           8.6639   41.9081    8.2813 C.ar    1  UNL1        0.0546
      8 C           8.1571   43.0619    7.6646 C.ar    1  UNL1        0.0149
      9 C           6.9782   43.6509    8.1279 C.ar    1  UNL1        0.0044
     10 C           6.2977   43.0903    9.2111 C.ar    1  UNL1        0.0370
     11 C           6.7938   41.9353    9.8364 C.ar    1  UNL1        0.1396
     12 C           7.9757   41.3537    9.3661 C.ar    1  UNL1        0.0516
     13 O           6.1382   41.3501   10.9251 O.3     1  UNL1       -0.4791
     14 C           4.8436   40.7651   10.8334 C.3     1  UNL1        0.1659
     15 C           3.8507   41.5477   11.6808 C.3     1  UNL1        0.0435
     16 C           2.8750   42.1929   10.7203 C.3     1  UNL1        0.0038
     17 C           2.9339   41.3549    9.4664 C.3     1  UNL1        0.0038
     18 C           4.3559   40.8466    9.3993 C.3     1  UNL1        0.0435
     19 C          13.6943   41.2151    7.9081 C.3     1  UNL1        0.1591
     20 N          16.4460   44.6232    5.7964 N.pl3   1  UNL1       -0.3278
     21 N          15.3752   42.9074    7.1550 N.ar    1  UNL1       -0.1960
     22 N          13.5299   42.6895    5.8955 N.ar    1  UNL1       -0.1538
     23 N          14.2836   43.6103    5.3207 N.ar    1  UNL1       -0.2468
     24 C          15.3805   43.7270    6.0878 C.ar    1  UNL1        0.2086
     25 C          14.1920   42.2827    6.9947 C.ar    1  UNL1        0.1811
     26 H          16.3990   45.2017    5.0012 H       1  UNL1        0.1451
     27 H          17.2303   44.6650    6.3899 H       1  UNL1        0.1451
     28 H          14.0820   44.1100    4.4967 H       1  UNL1        0.1918
@<TRIPOS>BOND
     1    20    24    1
     2     1     3   am
     3     2     7    1
     4    23    22   ar
     5    23    24   ar
     6    25    21   ar
     7    19    25    1
     8    19     1    1
     9     3     2   am
    10     8     9   ar
    11    10    11   ar
    12    11    13    1
    13    14    13    1
    14    14    15    1
    15    15    16    1
    16    16    17    1
    17    17    18    1
    18    18    14    1
    19    12     7   ar
    20    24    21   ar
    21    25    22   ar
    22     3     4    2
    23     7     8   ar
    24     9    10   ar
    25    11    12   ar
    26    20    26    1
    27    20    27    1
    28     1     5    1
    29     2     6    1
    30    23    28    1
@<TRIPOS>MOLECULE
MolPort-039-218-911 299761789 MCULE-6935341986 ZINC000299761789
 28 30 0 0 0
SMALL
GASTEIGER

@<TRIPOS>ATOM
      1 N          12.9238   40.5040    8.0869 N.am    1  UNL1       -0.2819
      2 N          10.4879   40.6670    7.7410 N.am    1  UNL1       -0.2682
      3 C          11.7480   41.3083    7.9747 C.2     1  UNL1        0.3048
      4 O          11.8279   42.5625    8.0762 O.2     1  UNL1       -0.2525
      5 H          12.8406   39.5298    7.9718 H       1  UNL1        0.1514
      6 H          10.5010   39.6860    7.6601 H       1  UNL1        0.1564
      7 C           9.2097   41.3047    7.6127 C.ar    1  UNL1        0.0546
      8 C           8.7988   41.9125    6.4168 C.ar    1  UNL1        0.0149
      9 C           7.5468   42.5257    6.3297 C.ar    1  UNL1        0.0044
     10 C           6.6967   42.5356    7.4379 C.ar    1  UNL1        0.0370
     11 C           7.0955   41.9300    8.6401 C.ar    1  UNL1        0.1396
     12 C           8.3516   41.3197    8.7178 C.ar    1  UNL1        0.0516
     13 O           6.2693   41.9243    9.7692 O.3     1  UNL1       -0.4791
     14 C           5.0486   41.1953    9.8388 C.3     1  UNL1        0.1659
     15 C           4.7610   40.7857   11.2762 C.3     1  UNL1        0.0435
     16 C           3.5297   41.5530   11.7075 C.3     1  UNL1        0.0038
     17 C           2.8111   41.9087   10.4287 C.3     1  UNL1        0.0038
     18 C           3.9040   42.0890    9.4002 C.3     1  UNL1        0.0435
     19 C          14.2397   41.0628    8.3640 C.3     1  UNL1        0.1591
     20 N          17.6304   38.8444   11.0525 N.pl3   1  UNL1       -0.3278
     21 N          16.2566   40.0457    9.4381 N.ar    1  UNL1       -0.1960
     22 N          14.2928   39.7296   10.4785 N.ar    1  UNL1       -0.1538
     23 N          15.2180   39.1338   11.2101 N.ar    1  UNL1       -0.2468
     24 C          16.3837   39.3327   10.5723 C.ar    1  UNL1        0.2086
     25 C          14.9272   40.2650    9.4188 C.ar    1  UNL1        0.1811
     26 H          17.6671   38.3272   11.8894 H       1  UNL1        0.1451
     27 H          18.4566   39.0235   10.5480 H       1  UNL1        0.1451
     28 H          15.0808   38.6431   12.0525 H       1  UNL1        0.1918
@<TRIPOS>BOND
     1    20    24    1
     2     1     3   am
     3     2     7    1
     4    23    22   ar
     5    23    24   ar
     6    25    21   ar
     7    19    25    1
     8    19     1    1
     9     3     2   am
    10     8     9   ar
    11    10    11   ar
    12    11    13    1
    13    14    13    1
    14    14    15    1
    15    15    16    1
    16    16    17    1
    17    17    18    1
    18    18    14    1
    19    12     7   ar
    20    24    21   ar
    21    25    22   ar
    22     3     4    2
    23     7     8   ar
    24     9    10   ar
    25    11    12   ar
    26    20    26    1
    27    20    27    1
    28     1     5    1
    29     2     6    1
    30    23    28    1
@<TRIPOS>MOLECULE
MolPort-039-218-911 299761789 MCULE-6935341986 ZINC000299761789
 28 30 0 0 0
SMALL
GASTEIGER

@<TRIPOS>ATOM
      1 N          13.2320   40.5803    8.5756 N.am    1  UNL1       -0.2819
      2 N          10.9710   41.1216    9.3968 N.am    1  UNL1       -0.2682
      3 C          12.3062   40.6727    9.6601 C.2     1  UNL1        0.3048
      4 O          12.6684   40.3667   10.8285 O.2     1  UNL1       -0.2525
      5 H          12.9351   40.8556    7.6783 H       1  UNL1        0.1514
      6 H          10.7606   41.3555    8.4639 H       1  UNL1        0.1564
      7 C           9.9090   41.2659   10.3498 C.ar    1  UNL1        0.0546
      8 C          10.1200   41.1070   11.7277 C.ar    1  UNL1        0.0149
      9 C           9.0605   41.2534   12.6263 C.ar    1  UNL1        0.0044
     10 C           7.7825   41.5597   12.1533 C.ar    1  UNL1        0.0370
     11 C           7.5584   41.7223   10.7769 C.ar    1  UNL1        0.1396
     12 C           8.6253   41.5724    9.8850 C.ar    1  UNL1        0.0516
     13 O           6.2903   42.0267   10.2701 O.3     1  UNL1       -0.4791
     14 C           5.1634   41.1703   10.4220 C.3     1  UNL1        0.1659
     15 C           4.2080   41.7366   11.4626 C.3     1  UNL1        0.0435
     16 C           2.9462   42.1290   10.7246 C.3     1  UNL1        0.0038
     17 C           2.9416   41.2943    9.4671 C.3     1  UNL1        0.0038
     18 C           4.3993   41.1084    9.1129 C.3     1  UNL1        0.0435
     19 C          14.5958   40.0966    8.7401 C.3     1  UNL1        0.1591
     20 N          16.6243   44.2556    7.2453 N.pl3   1  UNL1       -0.3278
     21 N          15.2633   42.3049    7.7735 N.ar    1  UNL1       -0.1960
     22 N          16.8280   41.2037    8.9474 N.ar    1  UNL1       -0.1538
     23 N          17.3737   42.3380    8.5452 N.ar    1  UNL1       -0.2468
     24 C          16.4243   42.9814    7.8451 C.ar    1  UNL1        0.2086
     25 C          15.5682   41.1944    8.4732 C.ar    1  UNL1        0.1811
     26 H          17.4950   44.7075    7.3283 H       1  UNL1        0.1451
     27 H          15.8921   44.6855    6.7471 H       1  UNL1        0.1451
     28 H          18.2908   42.6490    8.7226 H       1  UNL1        0.1918
@<TRIPOS>BOND
     1    20    24    1
     2     1     3   am
     3     2     7    1
     4    23    22   ar
     5    23    24   ar
     6    25    21   ar
     7    19    25    1
     8    19     1    1
     9     3     2   am
    10     8     9   ar
    11    10    11   ar
    12    11    13    1
    13    14    13    1
    14    14    15    1
    15    15    16    1
    16    16    17    1
    17    17    18    1
    18    18    14    1
    19    12     7   ar
    20    24    21   ar
    21    25    22   ar
    22     3     4    2
    23     7     8   ar
    24     9    10   ar
    25    11    12   ar
    26    20    26    1
    27    20    27    1
    28     1     5    1
    29     2     6    1
    30    23    28    1
@<TRIPOS>MOLECULE
MolPort-039-218-911 299761789 MCULE-6935341986 ZINC000299761789
 28 30 0 0 0
SMALL
GASTEIGER

@<TRIPOS>ATOM
      1 N          12.7062   41.5636    7.1984 N.am    1  UNL1       -0.2819
      2 N          11.0580   40.9600    8.9301 N.am    1  UNL1       -0.2682
      3 C          11.8303   41.9608    8.2552 C.2     1  UNL1        0.3048
      4 O          11.7409   43.1761    8.5790 O.2     1  UNL1       -0.2525
      5 H          12.7345   40.6133    6.9424 H       1  UNL1        0.1514
      6 H          11.1682   40.0330    8.6173 H       1  UNL1        0.1564
      7 C          10.1414   41.1671   10.0135 C.ar    1  UNL1        0.0546
      8 C          10.5216   40.9926   11.3526 C.ar    1  UNL1        0.0149
      9 C           9.6004   41.2018   12.3817 C.ar    1  UNL1        0.0044
     10 C           8.2925   41.5869   12.0789 C.ar    1  UNL1        0.0370
     11 C           7.8997   41.7660   10.7430 C.ar    1  UNL1        0.1396
     12 C           8.8289   41.5528    9.7196 C.ar    1  UNL1        0.0516
     13 O           6.5970   42.1487   10.4053 O.3     1  UNL1       -0.4791
     14 C           6.1888   42.4345    9.0718 C.3     1  UNL1        0.1659
     15 C           4.6737   42.3502    8.9552 C.3     1  UNL1        0.0435
     16 C           4.1816   43.7541    8.6764 C.3     1  UNL1        0.0038
     17 C           5.3604   44.4795    8.0744 C.3     1  UNL1        0.0038
     18 C           6.5770   43.8586    8.7219 C.3     1  UNL1        0.0435
     19 C          13.5589   42.5031    6.4836 C.3     1  UNL1        0.1591
     20 N          17.8708   44.1318    8.0333 N.pl3   1  UNL1       -0.3278
     21 N          15.7055   43.6719    7.0152 N.ar    1  UNL1       -0.1960
     22 N          15.3627   41.6901    8.0123 N.ar    1  UNL1       -0.1538
     23 N          16.5309   42.1393    8.4365 N.ar    1  UNL1       -0.2468
     24 C          16.7185   43.3232    7.8295 C.ar    1  UNL1        0.2086
     25 C          14.8836   42.6137    7.1581 C.ar    1  UNL1        0.1811
     26 H          18.5837   43.8287    8.6408 H       1  UNL1        0.1451
     27 H          17.9555   44.9946    7.5667 H       1  UNL1        0.1451
     28 H          17.1407   41.6959    9.0695 H       1  UNL1        0.1918
@<TRIPOS>BOND
     1    20    24    1
     2     1     3   am
     3     2     7    1
     4    23    22   ar
     5    23    24   ar
     6    25    21   ar
     7    19    25    1
     8    19     1    1
     9     3     2   am
    10     8     9   ar
    11    10    11   ar
    12    11    13    1
    13    14    13    1
    14    14    15    1
    15    15    16    1
    16    16    17    1
    17    17    18    1
    18    18    14    1
    19    12     7   ar
    20    24    21   ar
    21    25    22   ar
    22     3     4    2
    23     7     8   ar
    24     9    10   ar
    25    11    12   ar
    26    20    26    1
    27    20    27    1
    28     1     5    1
    29     2     6    1
    30    23    28    1
@<TRIPOS>MOLECULE
MolPort-039-218-911 299761789 MCULE-6935341986 ZINC000299761789
 28 30 0 0 0
SMALL
GASTEIGER

@<TRIPOS>ATOM
      1 N          10.0295   40.7575    5.4463 N.am    1  UNL1       -0.2819
      2 N          12.0754   42.0406    5.9441 N.am    1  UNL1       -0.2682
      3 C          11.3302   40.8199    6.0345 C.2     1  UNL1        0.3048
      4 O          11.8093   39.8099    6.6179 O.2     1  UNL1       -0.2525
      5 H           9.6905   41.5486    4.9683 H       1  UNL1        0.1514
      6 H          11.6454   42.7848    5.4638 H       1  UNL1        0.1564
      7 C          13.3817   42.2920    6.4799 C.ar    1  UNL1        0.0546
      8 C          14.1643   43.3755    6.0533 C.ar    1  UNL1        0.0149
      9 C          15.4335   43.5878    6.5969 C.ar    1  UNL1        0.0044
     10 C          15.9291   42.7180    7.5709 C.ar    1  UNL1        0.0370
     11 C          15.1555   41.6306    8.0071 C.ar    1  UNL1        0.1396
     12 C          13.8865   41.4257    7.4558 C.ar    1  UNL1        0.0516
     13 O          15.6232   40.7393    8.9789 O.3     1  UNL1       -0.4791
     14 C          14.8756   39.6151    9.4305 C.3     1  UNL1        0.1659
     15 C          15.7746   38.6609   10.2036 C.3     1  UNL1        0.0435
     16 C          15.3006   38.6873   11.6408 C.3     1  UNL1        0.0038
     17 C          13.8645   39.1477   11.5805 C.3     1  UNL1        0.0038
     18 C          13.7999   40.0811   10.3934 C.3     1  UNL1        0.0435
     19 C           9.1835   39.5747    5.5231 C.3     1  UNL1        0.1591
     20 N           5.6759   41.6432    8.1810 N.pl3   1  UNL1       -0.3278
     21 N           7.7014   40.8459    7.0863 N.ar    1  UNL1       -0.1960
     22 N           6.6971   39.3866    5.7076 N.ar    1  UNL1       -0.1538
     23 N           5.7460   39.9560    6.4271 N.ar    1  UNL1       -0.2468
     24 C           6.3652   40.8236    7.2450 C.ar    1  UNL1        0.2086
     25 C           7.8616   39.9236    6.1171 C.ar    1  UNL1        0.1811
     26 H           4.6959   41.5870    8.2565 H       1  UNL1        0.1451
     27 H           6.1787   42.2667    8.7534 H       1  UNL1        0.1451
     28 H           4.7788   39.7799    6.3743 H       1  UNL1        0.1918
@<TRIPOS>BOND
     1    20    24    1
     2     1     3   am
     3     2     7    1
     4    23    22   ar
     5    23    24   ar
     6    25    21   ar
     7    19    25    1
     8    19     1    1
     9     3     2   am
    10     8     9   ar
    11    10    11   ar
    12    11    13    1
    13    14    13    1
    14    14    15    1
    15    15    16    1
    16    16    17    1
    17    17    18    1
    18    18    14    1
    19    12     7   ar
    20    24    21   ar
    21    25    22   ar
    22     3     4    2
    23     7     8   ar
    24     9    10   ar
    25    11    12   ar
    26    20    26    1
    27    20    27    1
    28     1     5    1
    29     2     6    1
    30    23    28    1
@<TRIPOS>MOLECULE
MolPort-039-218-911 299761789 MCULE-6935341986 ZINC000299761789
 28 30 0 0 0
SMALL
GASTEIGER

@<TRIPOS>ATOM
      1 N          11.5758   38.8984    7.7761 N.am    1  UNL1       -0.2819
      2 N           9.4899   40.0837    7.2070 N.am    1  UNL1       -0.2682
      3 C          10.7042   40.0148    7.9650 C.2     1  UNL1        0.3048
      4 O          11.0091   40.9233    8.7845 O.2     1  UNL1       -0.2525
      5 H          11.3318   38.2184    7.1073 H       1  UNL1        0.1514
      6 H           9.3214   39.3464    6.5768 H       1  UNL1        0.1564
      7 C           8.4945   41.1142    7.2703 C.ar    1  UNL1        0.0546
      8 C           8.3393   42.0618    6.2474 C.ar    1  UNL1        0.0149
      9 C           7.3594   43.0525    6.3447 C.ar    1  UNL1        0.0044
     10 C           6.5277   43.1027    7.4657 C.ar    1  UNL1        0.0370
     11 C           6.6720   42.1597    8.4957 C.ar    1  UNL1        0.1396
     12 C           7.6570   41.1724    8.3897 C.ar    1  UNL1        0.0516
     13 O           5.8572   42.1835    9.6329 O.3     1  UNL1       -0.4791
     14 C           4.6785   41.3961    9.7644 C.3     1  UNL1        0.1659
     15 C           4.6256   40.7534   11.1430 C.3     1  UNL1        0.0435
     16 C           3.4587   41.3850   11.8713 C.3     1  UNL1        0.0038
     17 C           2.5435   41.9025   10.7883 C.3     1  UNL1        0.0038
     18 C           3.4601   42.2928    9.6516 C.3     1  UNL1        0.0435
     19 C          12.8094   38.7226    8.5299 C.3     1  UNL1        0.1591
     20 N          11.4444   35.0249   11.3777 N.pl3   1  UNL1       -0.3278
     21 N          11.7731   37.0716   10.0972 N.ar    1  UNL1       -0.1960
     22 N          13.7278   36.4847    9.1623 N.ar    1  UNL1       -0.1538
     23 N          13.3501   35.4791    9.9320 N.ar    1  UNL1       -0.2468
     24 C          12.1813   35.8485   10.4823 C.ar    1  UNL1        0.2086
     25 C          12.7786   37.4326    9.2760 C.ar    1  UNL1        0.1811
     26 H          11.7892   34.1370   11.6268 H       1  UNL1        0.1451
     27 H          10.5895   35.3427   11.7484 H       1  UNL1        0.1451
     28 H          13.8285   34.6304   10.0735 H       1  UNL1        0.1918
@<TRIPOS>BOND
     1    20    24    1
     2     1     3   am
     3     2     7    1
     4    23    22   ar
     5    23    24   ar
     6    25    21   ar
     7    19    25    1
     8    19     1    1
     9     3     2   am
    10     8     9   ar
    11    10    11   ar
    12    11    13    1
    13    14    13    1
    14    14    15    1
    15    15    16    1
    16    16    17    1
    17    17    18    1
    18    18    14    1
    19    12     7   ar
    20    24    21   ar
    21    25    22   ar
    22     3     4    2
    23     7     8   ar
    24     9    10   ar
    25    11    12   ar
    26    20    26    1
    27    20    27    1
    28     1     5    1
    29     2     6    1
    30    23    28    1
@<TRIPOS>MOLECULE
MolPort-039-218-911 299761789 MCULE-6935341986 ZINC000299761789
 28 30 0 0 0
SMALL
GASTEIGER

@<TRIPOS>ATOM
      1 N          10.9502   42.2739    5.6427 N.am    1  UNL1       -0.2819
      2 N          13.3081   42.7145    6.2137 N.am    1  UNL1       -0.2682
      3 C          12.0603   42.0804    6.5214 C.2     1  UNL1        0.3048
      4 O          11.9363   41.3573    7.5469 O.2     1  UNL1       -0.2525
      5 H          11.0807   42.8163    4.8316 H       1  UNL1        0.1514
      6 H          13.3369   43.2544    5.3910 H       1  UNL1        0.1564
      7 C          14.5192   42.6449    6.9785 C.ar    1  UNL1        0.0546
      8 C          15.4598   43.6860    6.9778 C.ar    1  UNL1        0.0149
      9 C          16.6296   43.5819    7.7341 C.ar    1  UNL1        0.0044
     10 C          16.8672   42.4360    8.4965 C.ar    1  UNL1        0.0370
     11 C          15.9335   41.3876    8.5066 C.ar    1  UNL1        0.1396
     12 C          14.7659   41.5006    7.7450 C.ar    1  UNL1        0.0516
     13 O          16.1421   40.2254    9.2572 O.3     1  UNL1       -0.4791
     14 C          17.1839   40.0941   10.2184 C.3     1  UNL1        0.1659
     15 C          16.7939   39.0781   11.2824 C.3     1  UNL1        0.0435
     16 C          17.7298   37.8997   11.1202 C.3     1  UNL1        0.0038
     17 C          18.9501   38.4503   10.4231 C.3     1  UNL1        0.0038
     18 C          18.4305   39.5604    9.5385 C.3     1  UNL1        0.0435
     19 C           9.6342   41.7036    5.8950 C.3     1  UNL1        0.1591
     20 N           9.3031   37.8642    2.9291 N.pl3   1  UNL1       -0.3278
     21 N           9.3932   40.0201    4.0608 N.ar    1  UNL1       -0.1960
     22 N           9.7161   39.2159    6.1315 N.ar    1  UNL1       -0.1538
     23 N           9.6325   38.1752    5.3214 N.ar    1  UNL1       -0.2468
     24 C           9.4388   38.6755    4.0896 C.ar    1  UNL1        0.2086
     25 C           9.5648   40.3121    5.3651 C.ar    1  UNL1        0.1811
     26 H           9.3442   36.8837    3.0065 H       1  UNL1        0.1451
     27 H           9.1680   38.2833    2.0486 H       1  UNL1        0.1451
     28 H           9.6987   37.2249    5.5702 H       1  UNL1        0.1918
@<TRIPOS>BOND
     1    20    24    1
     2     1     3   am
     3     2     7    1
     4    23    22   ar
     5    23    24   ar
     6    25    21   ar
     7    19    25    1
     8    19     1    1
     9     3     2   am
    10     8     9   ar
    11    10    11   ar
    12    11    13    1
    13    14    13    1
    14    14    15    1
    15    15    16    1
    16    16    17    1
    17    17    18    1
    18    18    14    1
    19    12     7   ar
    20    24    21   ar
    21    25    22   ar
    22     3     4    2
    23     7     8   ar
    24     9    10   ar
    25    11    12   ar
    26    20    26    1
    27    20    27    1
    28     1     5    1
    29     2     6    1
    30    23    28    1
@<TRIPOS>MOLECULE
MolPort-039-218-911 299761789 MCULE-6935341986 ZINC000299761789
 28 30 0 0 0
SMALL
GASTEIGER

@<TRIPOS>ATOM
      1 N           9.2516   40.1517    7.0023 N.am    1  UNL1       -0.2819
      2 N          11.1924   39.9826    8.5138 N.am    1  UNL1       -0.2682
      3 C          10.6575   40.2859    7.2193 C.2     1  UNL1        0.3048
      4 O          11.4080   40.6705    6.2819 O.2     1  UNL1       -0.2525
      5 H           8.6822   39.8810    7.7584 H       1  UNL1        0.1514
      6 H          10.5474   39.7000    9.2018 H       1  UNL1        0.1564
      7 C          12.5685   40.0477    8.9120 C.ar    1  UNL1        0.0546
      8 C          13.0691   39.2919    9.9828 C.ar    1  UNL1        0.0149
      9 C          14.4157   39.3827   10.3432 C.ar    1  UNL1        0.0044
     10 C          15.2712   40.2300    9.6355 C.ar    1  UNL1        0.0370
     11 C          14.7829   40.9910    8.5613 C.ar    1  UNL1        0.1396
     12 C          13.4328   40.8942    8.2090 C.ar    1  UNL1        0.0516
     13 O          15.6123   41.8511    7.8335 O.3     1  UNL1       -0.4791
     14 C          15.2343   43.1734    7.4659 C.3     1  UNL1        0.1659
     15 C          16.4627   44.0678    7.3800 C.3     1  UNL1        0.0435
     16 C          16.6232   44.4451    5.9231 C.3     1  UNL1        0.0038
     17 C          15.2517   44.2837    5.3141 C.3     1  UNL1        0.0038
     18 C          14.6103   43.1515    6.0833 C.3     1  UNL1        0.0435
     19 C           8.6243   40.3980    5.7113 C.3     1  UNL1        0.1591
     20 N          10.1296   36.3397    3.4952 N.pl3   1  UNL1       -0.3278
     21 N           9.3637   38.1296    4.9602 N.ar    1  UNL1       -0.1960
     22 N           9.3648   39.7545    3.4115 N.ar    1  UNL1       -0.1538
     23 N           9.7669   38.6481    2.8111 N.ar    1  UNL1       -0.2468
     24 C           9.7605   37.6891    3.7522 C.ar    1  UNL1        0.2086
     25 C           9.1335   39.4310    4.6976 C.ar    1  UNL1        0.1811
     26 H          10.4128   36.0704    2.5916 H       1  UNL1        0.1451
     27 H          10.1018   35.6750    4.2209 H       1  UNL1        0.1451
     28 H          10.0201   38.5468    1.8651 H       1  UNL1        0.1918
@<TRIPOS>BOND
     1    20    24    1
     2     1     3   am
     3     2     7    1
     4    23    22   ar
     5    23    24   ar
     6    25    21   ar
     7    19    25    1
     8    19     1    1
     9     3     2   am
    10     8     9   ar
    11    10    11   ar
    12    11    13    1
    13    14    13    1
    14    14    15    1
    15    15    16    1
    16    16    17    1
    17    17    18    1
    18    18    14    1
    19    12     7   ar
    20    24    21   ar
    21    25    22   ar
    22     3     4    2
    23     7     8   ar
    24     9    10   ar
    25    11    12   ar
    26    20    26    1
    27    20    27    1
    28     1     5    1
    29     2     6    1
    30    23    28    1
@<TRIPOS>MOLECULE
MolPort-039-218-911 299761789 MCULE-6935341986 ZINC000299761789
 28 30 0 0 0
SMALL
GASTEIGER

@<TRIPOS>ATOM
      1 N           6.9346   42.3665   10.5837 N.am    1  UNL1       -0.2819
      2 N           9.3906   42.1479   10.5915 N.am    1  UNL1       -0.2682
      3 C           8.1198   41.7836   10.0383 C.2     1  UNL1        0.3048
      4 O           8.0397   40.9659    9.0819 O.2     1  UNL1       -0.2525
      5 H           7.0251   43.0266   11.3084 H       1  UNL1        0.1514
      6 H           9.3797   42.8009   11.3282 H       1  UNL1        0.1564
      7 C          10.6767   41.6609   10.1844 C.ar    1  UNL1        0.0546
      8 C          11.3070   40.5907   10.8369 C.ar    1  UNL1        0.0149
      9 C          12.5612   40.1448   10.4133 C.ar    1  UNL1        0.0044
     10 C          13.1940   40.7659    9.3342 C.ar    1  UNL1        0.0370
     11 C          12.5735   41.8372    8.6721 C.ar    1  UNL1        0.1396
     12 C          11.3183   42.2774    9.1046 C.ar    1  UNL1        0.0516
     13 O          13.1810   42.4829    7.5897 O.3     1  UNL1       -0.4791
     14 C          14.4654   42.1265    7.0898 C.3     1  UNL1        0.1659
     15 C          15.0479   43.2697    6.2712 C.3     1  UNL1        0.0435
     16 C          16.2473   43.7845    7.0376 C.3     1  UNL1        0.0038
     17 C          16.6830   42.6376    7.9169 C.3     1  UNL1        0.0038
     18 C          15.4107   41.8942    8.2533 C.3     1  UNL1        0.0435
     19 C           5.5987   42.0265   10.1140 C.3     1  UNL1        0.1591
     20 N           3.1906   45.4295    7.6107 N.pl3   1  UNL1       -0.3278
     21 N           4.0792   43.7649    9.1521 N.ar    1  UNL1       -0.1960
     22 N           5.8533   43.1770    7.9088 N.ar    1  UNL1       -0.1538
     23 N           5.1999   44.1070    7.2346 N.ar    1  UNL1       -0.2468
     24 C           4.1433   44.4448    7.9926 C.ar    1  UNL1        0.2086
     25 C           5.1682   42.9778    9.0503 C.ar    1  UNL1        0.1811
     26 H           3.2848   45.8979    6.7499 H       1  UNL1        0.1451
     27 H           2.4369   45.6427    8.2072 H       1  UNL1        0.1451
     28 H           5.4391   44.4775    6.3544 H       1  UNL1        0.1918
@<TRIPOS>BOND
     1    20    24    1
     2     1     3   am
     3     2     7    1
     4    23    22   ar
     5    23    24   ar
     6    25    21   ar
     7    19    25    1
     8    19     1    1
     9     3     2   am
    10     8     9   ar
    11    10    11   ar
    12    11    13    1
    13    14    13    1
    14    14    15    1
    15    15    16    1
    16    16    17    1
    17    17    18    1
    18    18    14    1
    19    12     7   ar
    20    24    21   ar
    21    25    22   ar
    22     3     4    2
    23     7     8   ar
    24     9    10   ar
    25    11    12   ar
    26    20    26    1
    27    20    27    1
    28     1     5    1
    29     2     6    1
    30    23    28    1
