@<TRIPOS>MOLECULE
MolPort-007-723-358 6818236 ChemDiv-E157-4659 MCULE-2103009041 PubChem-22517944 ZINC000006818236 ZINC06818236
 25 27 0 0 0
SMALL
GASTEIGER

@<TRIPOS>ATOM
      1 C          11.8192   41.4658    6.4887 C.2     1  UNL1        0.2721
      2 N          12.4694   42.6609    6.0427 N.am    1  UNL1       -0.2597
      3 O          12.4488   40.5704    7.1105 O.2     1  UNL1       -0.2707
      4 H          11.9086   43.3250    5.5803 H       1  UNL1        0.1569
      5 C          16.9282   42.9458    7.8968 C.ar    1  UNL1        0.1643
      6 C          16.1116   43.7104    6.1196 C.ar    1  UNL1        0.2195
      7 C          13.8554   42.9857    6.2028 C.ar    1  UNL1        0.1880
      8 N          17.9173   43.6057    7.2349 N.ar    1  UNL1       -0.1310
      9 N          17.3989   44.0957    6.1011 N.ar    1  UNL1       -0.1202
     10 N          14.5631   42.5810    7.2955 N.ar    1  UNL1       -0.1400
     11 N          15.8060   43.0193    7.1826 N.ar    1  UNL1       -0.1881
     12 S          14.8101   43.9029    5.0842 S.2     1  UNL1       -0.0111
     13 C          17.0797   42.2293    9.1983 C.3     1  UNL1        0.0677
     14 C          17.7675   39.9579    9.8948 C.3     1  UNL1        0.0005
     15 C          16.7963   40.7445    9.0404 C.3     1  UNL1        0.0076
     16 C          15.3801   40.4290    9.4834 C.3     1  UNL1        0.0005
     17 C          10.3623   41.2978    6.2480 C.3     1  UNL1        0.2898
     18 O           9.7005   41.0599    7.4833 O.3     1  UNL1       -0.4633
     19 C           9.5482   42.0471    8.4619 C.ar    1  UNL1        0.1665
     20 C           8.5373   43.0072    8.3147 C.ar    1  UNL1        0.1738
     21 C           8.3668   44.0034    9.2811 C.ar    1  UNL1        0.0328
     22 C           9.2041   44.0468   10.3992 C.ar    1  UNL1        0.0025
     23 C          10.2138   43.0936   10.5530 C.ar    1  UNL1        0.0033
     24 C          10.3862   42.0969    9.5886 C.ar    1  UNL1        0.0393
     25 F           7.7182   42.9765    7.2348 F       1  UNL1       -0.2010
@<TRIPOS>BOND
     1    14    15    1
     2    15    16    1
     3    15    13    1
     4    13     5    1
     5     6    12   ar
     6     7    12   ar
     7     7     2    1
     8    17     1    1
     9    17    18    1
    10    19    18    1
    11    20    25    1
    12    20    21   ar
    13    22    23   ar
    14    24    19   ar
    15     8     9   ar
    16     2     1   am
    17    11    10   ar
    18    11     5   ar
    19    11     6   ar
    20     5     8   ar
    21     6     9   ar
    22     7    10   ar
    23     1     3    2
    24    19    20   ar
    25    21    22   ar
    26    23    24   ar
    27     2     4    1
@<TRIPOS>MOLECULE
MolPort-007-723-358 6818236 ChemDiv-E157-4659 MCULE-2103009041 PubChem-22517944 ZINC000006818236 ZINC06818236
 25 27 0 0 0
SMALL
GASTEIGER

@<TRIPOS>ATOM
      1 C           9.6384   41.6877    8.7128 C.2     1  UNL1        0.2721
      2 N           8.4385   41.5739    7.9399 N.am    1  UNL1       -0.2597
      3 O           9.7423   42.5318    9.6410 O.2     1  UNL1       -0.2707
      4 H           8.4234   40.8780    7.2438 H       1  UNL1        0.1569
      5 C           3.9374   42.9481    9.0590 C.ar    1  UNL1        0.1643
      6 C           5.5155   43.9804    8.1349 C.ar    1  UNL1        0.2195
      7 C           7.2576   42.3728    8.0798 C.ar    1  UNL1        0.1880
      8 N           3.5046   44.2084    8.7827 N.ar    1  UNL1       -0.1310
      9 N           4.5090   44.8690    8.1919 N.ar    1  UNL1       -0.1202
     10 N           6.1238   41.8786    8.6534 N.ar    1  UNL1       -0.1400
     11 N           5.1991   42.8244    8.6493 N.ar    1  UNL1       -0.1881
     12 S           7.0895   44.0194    7.5659 S.2     1  UNL1       -0.0111
     13 C           3.1402   41.8833    9.7379 C.3     1  UNL1        0.0677
     14 C           2.3474   42.1230   12.0683 C.3     1  UNL1        0.0005
     15 C           3.5326   41.7564   11.2007 C.3     1  UNL1        0.0076
     16 C           3.9514   40.3319   11.5117 C.3     1  UNL1        0.0005
     17 C          10.7693   40.7629    8.4398 C.3     1  UNL1        0.2898
     18 O          11.9867   41.3622    8.8630 O.3     1  UNL1       -0.4633
     19 C          12.9766   40.6567    9.5542 C.ar    1  UNL1        0.1665
     20 C          14.2686   40.5842    9.0152 C.ar    1  UNL1        0.1738
     21 C          15.2741   39.8841    9.6894 C.ar    1  UNL1        0.0328
     22 C          14.9954   39.2528   10.9046 C.ar    1  UNL1        0.0025
     23 C          13.7102   39.3205   11.4482 C.ar    1  UNL1        0.0033
     24 C          12.7036   40.0196   10.7764 C.ar    1  UNL1        0.0393
     25 F          14.5524   41.1922    7.8371 F       1  UNL1       -0.2010
@<TRIPOS>BOND
     1    14    15    1
     2    15    16    1
     3    15    13    1
     4    13     5    1
     5     6    12   ar
     6     7    12   ar
     7     7     2    1
     8    17     1    1
     9    17    18    1
    10    19    18    1
    11    20    25    1
    12    20    21   ar
    13    22    23   ar
    14    24    19   ar
    15     8     9   ar
    16     2     1   am
    17    11    10   ar
    18    11     5   ar
    19    11     6   ar
    20     5     8   ar
    21     6     9   ar
    22     7    10   ar
    23     1     3    2
    24    19    20   ar
    25    21    22   ar
    26    23    24   ar
    27     2     4    1
@<TRIPOS>MOLECULE
MolPort-007-723-358 6818236 ChemDiv-E157-4659 MCULE-2103009041 PubChem-22517944 ZINC000006818236 ZINC06818236
 25 27 0 0 0
SMALL
GASTEIGER

@<TRIPOS>ATOM
      1 C           9.4911   41.0330    6.7815 C.2     1  UNL1        0.2721
      2 N           8.6678   41.0214    7.9529 N.am    1  UNL1       -0.2597
      3 O           9.2904   41.8532    5.8478 O.2     1  UNL1       -0.2707
      4 H           8.8969   40.3647    8.6497 H       1  UNL1        0.1569
      5 C           4.1883   42.5017    9.0221 C.ar    1  UNL1        0.1643
      6 C           5.9350   43.5758    8.5691 C.ar    1  UNL1        0.2195
      7 C           7.5436   41.8709    8.2110 C.ar    1  UNL1        0.1880
      8 N           3.8875   43.8277    9.0784 N.ar    1  UNL1       -0.1310
      9 N           4.9998   44.5155    8.7885 N.ar    1  UNL1       -0.1202
     10 N           6.3178   41.3605    8.5204 N.ar    1  UNL1       -0.1400
     11 N           5.4748   42.3630    8.7048 N.ar    1  UNL1       -0.1881
     12 S           7.5614   43.6035    8.1729 S.2     1  UNL1       -0.0111
     13 C           3.2403   41.3815    9.2992 C.3     1  UNL1        0.0677
     14 C           4.5530   40.5621   11.2285 C.3     1  UNL1        0.0005
     15 C           3.1943   41.0599   10.7839 C.3     1  UNL1        0.0076
     16 C           2.8371   42.3006   11.5804 C.3     1  UNL1        0.0005
     17 C          10.6308   40.0841    6.6847 C.3     1  UNL1        0.2898
     18 O          11.8552   40.8035    6.7476 O.3     1  UNL1       -0.4633
     19 C          12.8167   40.5744    7.7367 C.ar    1  UNL1        0.1665
     20 C          14.0430   41.2503    7.6694 C.ar    1  UNL1        0.1738
     21 C          15.0190   41.0366    8.6478 C.ar    1  UNL1        0.0328
     22 C          14.7765   40.1474    9.6982 C.ar    1  UNL1        0.0025
     23 C          13.5568   39.4700    9.7723 C.ar    1  UNL1        0.0033
     24 C          12.5798   39.6819    8.7958 C.ar    1  UNL1        0.0393
     25 F          14.2912   42.1156    6.6556 F       1  UNL1       -0.2010
@<TRIPOS>BOND
     1    14    15    1
     2    15    16    1
     3    15    13    1
     4    13     5    1
     5     6    12   ar
     6     7    12   ar
     7     7     2    1
     8    17     1    1
     9    17    18    1
    10    19    18    1
    11    20    25    1
    12    20    21   ar
    13    22    23   ar
    14    24    19   ar
    15     8     9   ar
    16     2     1   am
    17    11    10   ar
    18    11     5   ar
    19    11     6   ar
    20     5     8   ar
    21     6     9   ar
    22     7    10   ar
    23     1     3    2
    24    19    20   ar
    25    21    22   ar
    26    23    24   ar
    27     2     4    1
@<TRIPOS>MOLECULE
MolPort-007-723-358 6818236 ChemDiv-E157-4659 MCULE-2103009041 PubChem-22517944 ZINC000006818236 ZINC06818236
 25 27 0 0 0
SMALL
GASTEIGER

@<TRIPOS>ATOM
      1 C          10.0781   40.7925    9.9612 C.2     1  UNL1        0.2721
      2 N           9.1040   40.8949    8.9167 N.am    1  UNL1       -0.2597
      3 O           9.9822   41.4739   11.0154 O.2     1  UNL1       -0.2707
      4 H           9.2342   40.3168    8.1304 H       1  UNL1        0.1569
      5 C           4.5219   42.4340    9.1045 C.ar    1  UNL1        0.1643
      6 C           6.3252   43.4720    8.8199 C.ar    1  UNL1        0.2195
      7 C           7.9588   41.7553    8.9028 C.ar    1  UNL1        0.1880
      8 N           4.2247   43.7553    8.9712 N.ar    1  UNL1       -0.1310
      9 N           5.3732   44.4199    8.7881 N.ar    1  UNL1       -0.1202
     10 N           6.6963   41.2681    9.0683 N.ar    1  UNL1       -0.1400
     11 N           5.8414   42.2758    9.0100 N.ar    1  UNL1       -0.1881
     12 S           7.9938   43.4742    8.6836 S.2     1  UNL1       -0.0111
     13 C           3.5348   41.3399    9.3470 C.3     1  UNL1        0.0677
     14 C           4.7137   41.0033   11.4949 C.3     1  UNL1        0.0005
     15 C           3.3540   41.0875   10.8348 C.3     1  UNL1        0.0076
     16 C           2.5656   42.2179   11.4685 C.3     1  UNL1        0.0005
     17 C          11.2028   39.8323    9.8146 C.3     1  UNL1        0.2898
     18 O          12.4354   40.5403    9.8127 O.3     1  UNL1       -0.4633
     19 C          13.6285   39.9825   10.2825 C.ar    1  UNL1        0.1665
     20 C          14.8030   40.1487    9.5354 C.ar    1  UNL1        0.1738
     21 C          16.0074   39.5995    9.9864 C.ar    1  UNL1        0.0328
     22 C          16.0461   38.8819   11.1848 C.ar    1  UNL1        0.0025
     23 C          14.8798   38.7120   11.9351 C.ar    1  UNL1        0.0033
     24 C          13.6748   39.2598   11.4866 C.ar    1  UNL1        0.0393
     25 F          14.7794   40.8426    8.3709 F       1  UNL1       -0.2010
@<TRIPOS>BOND
     1    14    15    1
     2    15    16    1
     3    15    13    1
     4    13     5    1
     5     6    12   ar
     6     7    12   ar
     7     7     2    1
     8    17     1    1
     9    17    18    1
    10    19    18    1
    11    20    25    1
    12    20    21   ar
    13    22    23   ar
    14    24    19   ar
    15     8     9   ar
    16     2     1   am
    17    11    10   ar
    18    11     5   ar
    19    11     6   ar
    20     5     8   ar
    21     6     9   ar
    22     7    10   ar
    23     1     3    2
    24    19    20   ar
    25    21    22   ar
    26    23    24   ar
    27     2     4    1
@<TRIPOS>MOLECULE
MolPort-007-723-358 6818236 ChemDiv-E157-4659 MCULE-2103009041 PubChem-22517944 ZINC000006818236 ZINC06818236
 25 27 0 0 0
SMALL
GASTEIGER

@<TRIPOS>ATOM
      1 C          12.1740   41.4127    8.3881 C.2     1  UNL1        0.2721
      2 N          10.7841   41.7135    8.2219 N.am    1  UNL1       -0.2597
      3 O          12.6396   41.0620    9.5040 O.2     1  UNL1       -0.2707
      4 H          10.4891   41.9617    7.3160 H       1  UNL1        0.1569
      5 C           6.4725   41.6330   10.4138 C.ar    1  UNL1        0.1643
      6 C           8.4243   41.6497   11.1885 C.ar    1  UNL1        0.2195
      7 C           9.7803   41.6888    9.2436 C.ar    1  UNL1        0.1880
      8 N           6.3814   41.6057   11.7713 N.ar    1  UNL1       -0.1310
      9 N           7.6252   41.6177   12.2684 N.ar    1  UNL1       -0.1202
     10 N           8.4512   41.6780    8.9402 N.ar    1  UNL1       -0.1400
     11 N           7.7586   41.6574   10.0669 N.ar    1  UNL1       -0.1881
     12 S          10.0814   41.6697   10.9503 S.2     1  UNL1       -0.0111
     13 C           5.3208   41.6096    9.4634 C.3     1  UNL1        0.0677
     14 C           3.9501   43.5809    8.8700 C.3     1  UNL1        0.0005
     15 C           4.2078   42.5327    9.9315 C.3     1  UNL1        0.0076
     16 C           2.9337   41.7437   10.1670 C.3     1  UNL1        0.0005
     17 C          13.0775   41.4766    7.2098 C.3     1  UNL1        0.2898
     18 O          13.5761   42.7997    7.0640 O.3     1  UNL1       -0.4633
     19 C          14.9393   43.1051    7.1254 C.ar    1  UNL1        0.1665
     20 C          15.4194   44.2339    6.4468 C.ar    1  UNL1        0.1738
     21 C          16.7789   44.5582    6.4945 C.ar    1  UNL1        0.0328
     22 C          17.6660   43.7580    7.2195 C.ar    1  UNL1        0.0025
     23 C          17.1951   42.6315    7.8985 C.ar    1  UNL1        0.0033
     24 C          15.8370   42.3051    7.8523 C.ar    1  UNL1        0.0393
     25 F          14.5695   45.0187    5.7397 F       1  UNL1       -0.2010
@<TRIPOS>BOND
     1    14    15    1
     2    15    16    1
     3    15    13    1
     4    13     5    1
     5     6    12   ar
     6     7    12   ar
     7     7     2    1
     8    17     1    1
     9    17    18    1
    10    19    18    1
    11    20    25    1
    12    20    21   ar
    13    22    23   ar
    14    24    19   ar
    15     8     9   ar
    16     2     1   am
    17    11    10   ar
    18    11     5   ar
    19    11     6   ar
    20     5     8   ar
    21     6     9   ar
    22     7    10   ar
    23     1     3    2
    24    19    20   ar
    25    21    22   ar
    26    23    24   ar
    27     2     4    1
@<TRIPOS>MOLECULE
MolPort-007-723-358 6818236 ChemDiv-E157-4659 MCULE-2103009041 PubChem-22517944 ZINC000006818236 ZINC06818236
 25 27 0 0 0
SMALL
GASTEIGER

@<TRIPOS>ATOM
      1 C          11.2419   41.8359    7.2983 C.2     1  UNL1        0.2721
      2 N           9.9639   41.2297    7.0765 N.am    1  UNL1       -0.2597
      3 O          11.4932   42.4652    8.3593 O.2     1  UNL1       -0.2707
      4 H           9.8469   40.7374    6.2320 H       1  UNL1        0.1569
      5 C           7.2878   41.7672   11.0703 C.ar    1  UNL1        0.1643
      6 C           6.7642   41.2261    9.1099 C.ar    1  UNL1        0.2195
      7 C           8.8386   41.2688    7.9621 C.ar    1  UNL1        0.1880
      8 N           5.9420   41.5682   11.0392 N.ar    1  UNL1       -0.1310
      9 N           5.6051   41.2215    9.7899 N.ar    1  UNL1       -0.1202
     10 N           8.9756   41.5966    9.2784 N.ar    1  UNL1       -0.1400
     11 N           7.7852   41.5515    9.8533 N.ar    1  UNL1       -0.1881
     12 S           7.1986   40.9218    7.5220 S.2     1  UNL1       -0.0111
     13 C           8.0782   42.1880   12.2655 C.3     1  UNL1        0.0677
     14 C          10.3344   41.1798   12.1653 C.3     1  UNL1        0.0005
     15 C           8.9523   41.0516   12.7697 C.3     1  UNL1        0.0076
     16 C           9.0666   41.1063   14.2814 C.3     1  UNL1        0.0005
     17 C          12.3063   41.6842    6.2723 C.3     1  UNL1        0.2898
     18 O          13.0737   42.8786    6.2028 O.3     1  UNL1       -0.4633
     19 C          14.3517   42.9898    6.7593 C.ar    1  UNL1        0.1665
     20 C          15.1055   44.1468    6.5180 C.ar    1  UNL1        0.1738
     21 C          16.3859   44.2792    7.0645 C.ar    1  UNL1        0.0328
     22 C          16.9205   43.2580    7.8545 C.ar    1  UNL1        0.0025
     23 C          16.1754   42.1018    8.0997 C.ar    1  UNL1        0.0033
     24 C          14.8956   41.9670    7.5546 C.ar    1  UNL1        0.0393
     25 F          14.5988   45.1450    5.7532 F       1  UNL1       -0.2010
@<TRIPOS>BOND
     1    14    15    1
     2    15    16    1
     3    15    13    1
     4    13     5    1
     5     6    12   ar
     6     7    12   ar
     7     7     2    1
     8    17     1    1
     9    17    18    1
    10    19    18    1
    11    20    25    1
    12    20    21   ar
    13    22    23   ar
    14    24    19   ar
    15     8     9   ar
    16     2     1   am
    17    11    10   ar
    18    11     5   ar
    19    11     6   ar
    20     5     8   ar
    21     6     9   ar
    22     7    10   ar
    23     1     3    2
    24    19    20   ar
    25    21    22   ar
    26    23    24   ar
    27     2     4    1
@<TRIPOS>MOLECULE
MolPort-007-723-358 6818236 ChemDiv-E157-4659 MCULE-2103009041 PubChem-22517944 ZINC000006818236 ZINC06818236
 25 27 0 0 0
SMALL
GASTEIGER

@<TRIPOS>ATOM
      1 C          12.5041   40.3901    8.0437 C.2     1  UNL1        0.2721
      2 N          11.7328   40.7890    6.9053 N.am    1  UNL1       -0.2597
      3 O          12.0081   39.6747    8.9531 O.2     1  UNL1       -0.2707
      4 H          12.1936   41.3319    6.2253 H       1  UNL1        0.1569
      5 C           6.8999   40.9129    7.0733 C.ar    1  UNL1        0.1643
      6 C           8.2214   39.6761    6.0083 C.ar    1  UNL1        0.2195
      7 C          10.3569   40.4763    6.6580 C.ar    1  UNL1        0.1880
      8 N           6.1546   40.0464    6.3346 N.ar    1  UNL1       -0.1310
      9 N           6.9952   39.2552    5.6550 N.ar    1  UNL1       -0.1202
     10 N           9.3473   41.1667    7.2602 N.ar    1  UNL1       -0.1400
     11 N           8.1912   40.6684    6.8543 N.ar    1  UNL1       -0.1881
     12 S           9.7825   39.2275    5.6023 S.2     1  UNL1       -0.0111
     13 C           6.3615   41.9845    7.9632 C.3     1  UNL1        0.0677
     14 C           6.2129   41.3892   10.3591 C.3     1  UNL1        0.0005
     15 C           5.4658   41.3991    9.0425 C.3     1  UNL1        0.0076
     16 C           4.2086   42.2344    9.1935 C.3     1  UNL1        0.0005
     17 C          13.9312   40.7955    8.1331 C.3     1  UNL1        0.2898
     18 O          14.1326   41.9930    7.3944 O.3     1  UNL1       -0.4633
     19 C          15.3776   42.6223    7.2991 C.ar    1  UNL1        0.1665
     20 C          15.5632   43.6327    6.3452 C.ar    1  UNL1        0.1738
     21 C          16.7999   44.2755    6.2325 C.ar    1  UNL1        0.0328
     22 C          17.8577   43.9136    7.0709 C.ar    1  UNL1        0.0025
     23 C          17.6807   42.9077    8.0241 C.ar    1  UNL1        0.0033
     24 C          16.4457   42.2637    8.1388 C.ar    1  UNL1        0.0393
     25 F          14.5453   43.9934    5.5255 F       1  UNL1       -0.2010
@<TRIPOS>BOND
     1    14    15    1
     2    15    16    1
     3    15    13    1
     4    13     5    1
     5     6    12   ar
     6     7    12   ar
     7     7     2    1
     8    17     1    1
     9    17    18    1
    10    19    18    1
    11    20    25    1
    12    20    21   ar
    13    22    23   ar
    14    24    19   ar
    15     8     9   ar
    16     2     1   am
    17    11    10   ar
    18    11     5   ar
    19    11     6   ar
    20     5     8   ar
    21     6     9   ar
    22     7    10   ar
    23     1     3    2
    24    19    20   ar
    25    21    22   ar
    26    23    24   ar
    27     2     4    1
@<TRIPOS>MOLECULE
MolPort-007-723-358 6818236 ChemDiv-E157-4659 MCULE-2103009041 PubChem-22517944 ZINC000006818236 ZINC06818236
 25 27 0 0 0
SMALL
GASTEIGER

@<TRIPOS>ATOM
      1 C           9.2770   41.0925    7.8166 C.2     1  UNL1        0.2721
      2 N          10.4697   41.0887    7.0244 N.am    1  UNL1       -0.2597
      3 O           9.3224   40.9802    9.0696 O.2     1  UNL1       -0.2707
      4 H          10.3573   41.2005    6.0527 H       1  UNL1        0.1569
      5 C          15.1671   41.9039    7.8429 C.ar    1  UNL1        0.1643
      6 C          13.8943   40.3589    8.4777 C.ar    1  UNL1        0.2195
      7 C          11.8103   40.9382    7.5061 C.ar    1  UNL1        0.1880
      8 N          15.8975   41.0543    8.6152 N.ar    1  UNL1       -0.1310
      9 N          15.0883   40.0667    9.0207 N.ar    1  UNL1       -0.1202
     10 N          12.7860   41.8395    7.1988 N.ar    1  UNL1       -0.1400
     11 N          13.9150   41.4544    7.7703 N.ar    1  UNL1       -0.1881
     12 S          12.3800   39.6457    8.5105 S.2     1  UNL1       -0.0111
     13 C          15.6757   43.1539    7.2033 C.3     1  UNL1        0.0677
     14 C          17.6591   43.7875    5.8685 C.3     1  UNL1        0.0005
     15 C          17.1951   43.1717    7.1713 C.3     1  UNL1        0.0076
     16 C          17.7363   43.9923    8.3267 C.3     1  UNL1        0.0005
     17 C           7.9616   41.2736    7.1490 C.3     1  UNL1        0.2898
     18 O           7.3213   42.4325    7.6662 O.3     1  UNL1       -0.4633
     19 C           6.0509   42.3978    8.2494 C.ar    1  UNL1        0.1665
     20 C           5.3251   43.5899    8.3813 C.ar    1  UNL1        0.1738
     21 C           4.0527   43.5785    8.9614 C.ar    1  UNL1        0.0328
     22 C           3.4982   42.3779    9.4129 C.ar    1  UNL1        0.0025
     23 C           4.2153   41.1857    9.2849 C.ar    1  UNL1        0.0033
     24 C           5.4871   41.1943    8.7055 C.ar    1  UNL1        0.0393
     25 F           5.8514   44.7616    7.9475 F       1  UNL1       -0.2010
@<TRIPOS>BOND
     1    14    15    1
     2    15    16    1
     3    15    13    1
     4    13     5    1
     5     6    12   ar
     6     7    12   ar
     7     7     2    1
     8    17     1    1
     9    17    18    1
    10    19    18    1
    11    20    25    1
    12    20    21   ar
    13    22    23   ar
    14    24    19   ar
    15     8     9   ar
    16     2     1   am
    17    11    10   ar
    18    11     5   ar
    19    11     6   ar
    20     5     8   ar
    21     6     9   ar
    22     7    10   ar
    23     1     3    2
    24    19    20   ar
    25    21    22   ar
    26    23    24   ar
    27     2     4    1
@<TRIPOS>MOLECULE
MolPort-007-723-358 6818236 ChemDiv-E157-4659 MCULE-2103009041 PubChem-22517944 ZINC000006818236 ZINC06818236
 25 27 0 0 0
SMALL
GASTEIGER

@<TRIPOS>ATOM
      1 C          11.2584   41.3511    8.1423 C.2     1  UNL1        0.2721
      2 N          11.9990   40.1327    8.2728 N.am    1  UNL1       -0.2597
      3 O          11.6897   42.4341    8.6177 O.2     1  UNL1       -0.2707
      4 H          11.6084   39.3295    7.8587 H       1  UNL1        0.1569
      5 C          16.6662   40.5996    9.4560 C.ar    1  UNL1        0.1643
      6 C          15.1297   39.4401   10.2957 C.ar    1  UNL1        0.2195
      7 C          13.2524   39.9671    8.9465 C.ar    1  UNL1        0.1880
      8 N          17.1902   39.9141   10.5084 N.ar    1  UNL1       -0.1310
      9 N          16.2124   39.1724   11.0453 N.ar    1  UNL1       -0.1202
     10 N          14.3724   40.6341    8.5472 N.ar    1  UNL1       -0.1400
     11 N          15.3749   40.2927    9.3396 N.ar    1  UNL1       -0.1881
     12 S          13.5322   38.9396   10.3139 S.2     1  UNL1       -0.0111
     13 C          17.4078   41.5627    8.5886 C.3     1  UNL1        0.0677
     14 C          17.6604   44.0114    8.8272 C.3     1  UNL1        0.0005
     15 C          16.6849   42.8974    8.5124 C.3     1  UNL1        0.0076
     16 C          16.1214   43.1121    7.1204 C.3     1  UNL1        0.0005
     17 C           9.9738   41.3444    7.3950 C.3     1  UNL1        0.2898
     18 O           8.8910   41.4519    8.3096 O.3     1  UNL1       -0.4633
     19 C           7.8064   42.3092    8.0998 C.ar    1  UNL1        0.1665
     20 C           6.9345   42.5833    9.1628 C.ar    1  UNL1        0.1738
     21 C           5.8434   43.4377    8.9756 C.ar    1  UNL1        0.0328
     22 C           5.6168   44.0230    7.7270 C.ar    1  UNL1        0.0025
     23 C           6.4812   43.7548    6.6627 C.ar    1  UNL1        0.0033
     24 C           7.5723   42.9012    6.8472 C.ar    1  UNL1        0.0393
     25 F           7.1429   42.0220   10.3792 F       1  UNL1       -0.2010
@<TRIPOS>BOND
     1    14    15    1
     2    15    16    1
     3    15    13    1
     4    13     5    1
     5     6    12   ar
     6     7    12   ar
     7     7     2    1
     8    17     1    1
     9    17    18    1
    10    19    18    1
    11    20    25    1
    12    20    21   ar
    13    22    23   ar
    14    24    19   ar
    15     8     9   ar
    16     2     1   am
    17    11    10   ar
    18    11     5   ar
    19    11     6   ar
    20     5     8   ar
    21     6     9   ar
    22     7    10   ar
    23     1     3    2
    24    19    20   ar
    25    21    22   ar
    26    23    24   ar
    27     2     4    1
@<TRIPOS>MOLECULE
MolPort-007-723-358 6818236 ChemDiv-E157-4659 MCULE-2103009041 PubChem-22517944 ZINC000006818236 ZINC06818236
 25 27 0 0 0
SMALL
GASTEIGER

@<TRIPOS>ATOM
      1 C           9.1763   41.6676    9.6800 C.2     1  UNL1        0.2721
      2 N          10.4082   41.6856   10.4094 N.am    1  UNL1       -0.2597
      3 O           9.0183   40.9206    8.6791 O.2     1  UNL1       -0.2707
      4 H          10.4515   42.2806   11.1926 H       1  UNL1        0.1569
      5 C          14.8150   40.4872    8.8142 C.ar    1  UNL1        0.1643
      6 C          13.3375   39.3595    9.7917 C.ar    1  UNL1        0.2195
      7 C          11.5840   40.9232   10.1121 C.ar    1  UNL1        0.1880
      8 N          15.2965   39.2252    8.9796 N.ar    1  UNL1       -0.1310
      9 N          14.3555   38.5030    9.6019 N.ar    1  UNL1       -0.1202
     10 N          12.6545   41.4785    9.4761 N.ar    1  UNL1       -0.1400
     11 N          13.5888   40.5535    9.3310 N.ar    1  UNL1       -0.1881
     12 S          11.8226   39.2500   10.4959 S.2     1  UNL1       -0.0111
     13 C          15.5500   41.6235    8.1828 C.3     1  UNL1        0.0677
     14 C          17.7937   40.9679    8.9909 C.3     1  UNL1        0.0005
     15 C          16.7344   42.0485    9.0352 C.3     1  UNL1        0.0076
     16 C          17.3253   43.3423    8.5076 C.3     1  UNL1        0.0005
     17 C           8.0475   42.5186   10.1387 C.3     1  UNL1        0.2898
     18 O           6.9892   42.4557    9.1919 O.3     1  UNL1       -0.4633
     19 C           5.6721   42.1509    9.5492 C.ar    1  UNL1        0.1665
     20 C           4.6228   42.9047    9.0052 C.ar    1  UNL1        0.1738
     21 C           3.2981   42.6172    9.3485 C.ar    1  UNL1        0.0328
     22 C           3.0135   41.5763   10.2364 C.ar    1  UNL1        0.0025
     23 C           4.0537   40.8204   10.7828 C.ar    1  UNL1        0.0033
     24 C           5.3785   41.1057   10.4413 C.ar    1  UNL1        0.0393
     25 F           4.8851   43.9173    8.1427 F       1  UNL1       -0.2010
@<TRIPOS>BOND
     1    14    15    1
     2    15    16    1
     3    15    13    1
     4    13     5    1
     5     6    12   ar
     6     7    12   ar
     7     7     2    1
     8    17     1    1
     9    17    18    1
    10    19    18    1
    11    20    25    1
    12    20    21   ar
    13    22    23   ar
    14    24    19   ar
    15     8     9   ar
    16     2     1   am
    17    11    10   ar
    18    11     5   ar
    19    11     6   ar
    20     5     8   ar
    21     6     9   ar
    22     7    10   ar
    23     1     3    2
    24    19    20   ar
    25    21    22   ar
    26    23    24   ar
    27     2     4    1
