@<TRIPOS>MOLECULE
MolPort-020-278-623 MCULE-9206712680 PubChem-110255495
 28 31 0 0 0
SMALL
GASTEIGER

@<TRIPOS>ATOM
      1 C           9.2296   41.2557   14.0078 C.3     1  UNL1        0.0522
      2 C           9.2424   41.3545   12.5251 C.ar    1  UNL1        0.0635
      3 C           8.2255   42.0388   11.8615 C.ar    1  UNL1        0.0492
      4 C           8.2671   42.1181   10.4654 C.ar    1  UNL1        0.1357
      5 C          10.2789   40.8636   10.4585 C.ar    1  UNL1        0.1411
      6 N           9.2942   41.5284    9.7976 N.ar    1  UNL1       -0.2159
      7 N          10.2484   40.7812   11.8165 N.ar    1  UNL1       -0.2349
      8 C          11.3911   40.2365    9.6862 C.3     1  UNL1        0.0746
      9 C          12.6889   40.2611   10.4993 C.3     1  UNL1        0.0104
     10 C          13.8884   39.8490    9.6428 C.3     1  UNL1        0.0178
     11 C          13.8686   40.4957    8.2491 C.3     1  UNL1        0.0724
     12 C          11.5387   40.9102    8.3112 C.3     1  UNL1        0.0799
     13 N          12.8491   41.5416    8.1562 N.3     1  UNL1       -0.2685
     14 C          12.9014   42.0753    6.8049 C.3     1  UNL1        0.1007
     15 C          14.0756   42.9828    6.6540 C.ar    1  UNL1        0.0130
     16 C          14.0223   44.0844    5.7933 C.ar    1  UNL1        0.0959
     17 C          16.2567   44.6700    6.3483 C.ar    1  UNL1        0.0989
     18 C          16.3508   43.5765    7.2132 C.ar    1  UNL1        0.0204
     19 C          15.2513   42.7289    7.3635 C.ar    1  UNL1        0.0002
     20 N          15.1045   44.8991    5.6612 N.ar    1  UNL1       -0.2426
     21 N           7.2555   42.8045    9.7131 N.pl3   1  UNL1       -0.2833
     22 H           7.5519   43.5916    9.2014 H       1  UNL1        0.1550
     23 C           5.8626   42.4753    9.6214 C.ar    1  UNL1        0.1332
     24 C           5.4492   41.1825    9.9542 C.ar    1  UNL1        0.0345
     25 C           4.0952   40.8515    9.8725 C.ar    1  UNL1        0.0045
     26 C           3.1688   41.8101    9.4592 C.ar    1  UNL1        0.0208
     27 C           3.6160   43.0917    9.1329 C.ar    1  UNL1        0.1003
     28 N           4.9394   43.3945    9.2206 N.ar    1  UNL1       -0.2290
@<TRIPOS>BOND
     1     1     2    1
     2     2     7   ar
     3     3     4   ar
     4     4    21    1
     5     5     6   ar
     6     8     5    1
     7     8     9    1
     8     9    10    1
     9    10    11    1
    10    11    13    1
    11    12    13    1
    12    12     8    1
    13    14    13    1
    14    14    15    1
    15    16    20   ar
    16    17    18   ar
    17    19    15   ar
    18    23    28   ar
    19    24    25   ar
    20    26    27   ar
    21    21    23    1
    22     2     3   ar
    23     4     6   ar
    24     5     7   ar
    25    15    16   ar
    26    17    20   ar
    27    18    19   ar
    28    23    24   ar
    29    25    26   ar
    30    27    28   ar
    31    21    22    1
@<TRIPOS>MOLECULE
MolPort-020-278-623 MCULE-9206712680 PubChem-110255495
 28 31 0 0 0
SMALL
GASTEIGER

@<TRIPOS>ATOM
      1 C           7.2422   43.2651    5.8094 C.3     1  UNL1        0.0522
      2 C           7.7851   42.6534    7.0502 C.ar    1  UNL1        0.0635
      3 C           7.0251   42.6511    8.2185 C.ar    1  UNL1        0.0492
      4 C           7.5617   42.0642    9.3695 C.ar    1  UNL1        0.1357
      5 C           9.5340   41.5247    8.1696 C.ar    1  UNL1        0.1411
      6 N           8.8040   41.5144    9.3166 N.ar    1  UNL1       -0.2159
      7 N           9.0211   42.0922    7.0442 N.ar    1  UNL1       -0.2349
      8 C          10.8910   40.9039    8.1543 C.3     1  UNL1        0.0746
      9 C          11.6127   41.1600    9.4808 C.3     1  UNL1        0.0104
     10 C          13.0844   40.7478    9.4006 C.3     1  UNL1        0.0178
     11 C          13.7515   41.1931    8.0899 C.3     1  UNL1        0.0724
     12 C          11.6936   41.3939    6.9370 C.3     1  UNL1        0.0799
     13 N          12.8996   42.1172    7.3400 N.3     1  UNL1       -0.2685
     14 C          13.6096   42.4636    6.1196 C.3     1  UNL1        0.1007
     15 C          14.8839   43.1668    6.4462 C.ar    1  UNL1        0.0130
     16 C          15.2449   44.3410    5.7769 C.ar    1  UNL1        0.0959
     17 C          17.2590   44.4769    7.0293 C.ar    1  UNL1        0.0989
     18 C          16.9363   43.3032    7.7155 C.ar    1  UNL1        0.0204
     19 C          15.7406   42.6460    7.4184 C.ar    1  UNL1        0.0002
     20 N          16.4143   44.9672    6.0815 N.ar    1  UNL1       -0.2426
     21 N           6.8394   42.0247   10.6093 N.pl3   1  UNL1       -0.2833
     22 H           7.3777   42.1032   11.4299 H       1  UNL1        0.1550
     23 C           5.4236   41.8841   10.7900 C.ar    1  UNL1        0.1332
     24 C           4.5610   42.6420    9.9934 C.ar    1  UNL1        0.0345
     25 C           3.1806   42.5107   10.1576 C.ar    1  UNL1        0.0045
     26 C           2.6749   41.6281   11.1132 C.ar    1  UNL1        0.0208
     27 C           3.5647   40.8871   11.8930 C.ar    1  UNL1        0.1003
     28 N           4.9062   41.0285   11.7164 N.ar    1  UNL1       -0.2290
@<TRIPOS>BOND
     1     1     2    1
     2     2     7   ar
     3     3     4   ar
     4     4    21    1
     5     5     6   ar
     6     8     5    1
     7     8     9    1
     8     9    10    1
     9    10    11    1
    10    11    13    1
    11    12    13    1
    12    12     8    1
    13    14    13    1
    14    14    15    1
    15    16    20   ar
    16    17    18   ar
    17    19    15   ar
    18    23    28   ar
    19    24    25   ar
    20    26    27   ar
    21    21    23    1
    22     2     3   ar
    23     4     6   ar
    24     5     7   ar
    25    15    16   ar
    26    17    20   ar
    27    18    19   ar
    28    23    24   ar
    29    25    26   ar
    30    27    28   ar
    31    21    22    1
@<TRIPOS>MOLECULE
MolPort-020-278-623 MCULE-9206712680 PubChem-110255495
 28 31 0 0 0
SMALL
GASTEIGER

@<TRIPOS>ATOM
      1 C          13.9306   38.6963   11.5959 C.3     1  UNL1        0.0522
      2 C          13.3632   39.7405   10.7037 C.ar    1  UNL1        0.0635
      3 C          14.0464   40.1201    9.5496 C.ar    1  UNL1        0.0492
      4 C          13.4850   41.1030    8.7275 C.ar    1  UNL1        0.1357
      5 C          11.6388   41.2779   10.2047 C.ar    1  UNL1        0.1411
      6 N          12.2935   41.6579    9.0754 N.ar    1  UNL1       -0.2159
      7 N          12.1757   40.3221   11.0109 N.ar    1  UNL1       -0.2349
      8 C          10.3300   41.9086   10.5452 C.3     1  UNL1        0.0746
      9 C           9.6730   41.1791   11.7208 C.3     1  UNL1        0.0104
     10 C           8.2314   41.6486   11.9298 C.3     1  UNL1        0.0178
     11 C           7.4576   41.7842   10.6092 C.3     1  UNL1        0.0724
     12 C           9.4236   41.9718    9.3039 C.3     1  UNL1        0.0799
     13 N           8.1965   41.1976    9.4904 N.3     1  UNL1       -0.2685
     14 C           7.3922   41.3901    8.2948 C.3     1  UNL1        0.1007
     15 C           6.0714   41.9842    8.6519 C.ar    1  UNL1        0.0130
     16 C           5.8955   43.3718    8.6814 C.ar    1  UNL1        0.0959
     17 C           3.6262   43.1052    9.3315 C.ar    1  UNL1        0.0989
     18 C           3.7639   41.7147    9.3191 C.ar    1  UNL1        0.0204
     19 C           4.9965   41.1542    8.9777 C.ar    1  UNL1        0.0002
     20 N           4.6861   43.8985    9.0159 N.ar    1  UNL1       -0.2426
     21 N          14.1301   41.5461    7.5242 N.pl3   1  UNL1       -0.2833
     22 H          13.7606   41.2012    6.6794 H       1  UNL1        0.1550
     23 C          15.2510   42.4336    7.4113 C.ar    1  UNL1        0.1332
     24 C          16.3975   42.1755    8.1676 C.ar    1  UNL1        0.0345
     25 C          17.4966   43.0303    8.0632 C.ar    1  UNL1        0.0045
     26 C          17.4415   44.1325    7.2087 C.ar    1  UNL1        0.0208
     27 C          16.2802   44.3617    6.4685 C.ar    1  UNL1        0.1003
     28 N          15.2208   43.5160    6.5835 N.ar    1  UNL1       -0.2290
@<TRIPOS>BOND
     1     1     2    1
     2     2     7   ar
     3     3     4   ar
     4     4    21    1
     5     5     6   ar
     6     8     5    1
     7     8     9    1
     8     9    10    1
     9    10    11    1
    10    11    13    1
    11    12    13    1
    12    12     8    1
    13    14    13    1
    14    14    15    1
    15    16    20   ar
    16    17    18   ar
    17    19    15   ar
    18    23    28   ar
    19    24    25   ar
    20    26    27   ar
    21    21    23    1
    22     2     3   ar
    23     4     6   ar
    24     5     7   ar
    25    15    16   ar
    26    17    20   ar
    27    18    19   ar
    28    23    24   ar
    29    25    26   ar
    30    27    28   ar
    31    21    22    1
@<TRIPOS>MOLECULE
MolPort-020-278-623 MCULE-9206712680 PubChem-110255495
 28 31 0 0 0
SMALL
GASTEIGER

@<TRIPOS>ATOM
      1 C          13.6476   39.4840   11.3830 C.3     1  UNL1        0.0522
      2 C          13.0765   40.0079   10.1151 C.ar    1  UNL1        0.0635
      3 C          13.8933   40.6748    9.2037 C.ar    1  UNL1        0.0492
      4 C          13.3274   41.1531    8.0170 C.ar    1  UNL1        0.1357
      5 C          11.2177   40.3027    8.6854 C.ar    1  UNL1        0.1411
      6 N          12.0023   40.9546    7.7866 N.ar    1  UNL1       -0.2159
      7 N          11.7582   39.8327    9.8424 N.ar    1  UNL1       -0.2349
      8 C           9.7691   40.1011    8.3891 C.3     1  UNL1        0.0746
      9 C           9.5243   40.1137    6.8772 C.3     1  UNL1        0.0104
     10 C           8.0281   40.1530    6.5575 C.3     1  UNL1        0.0178
     11 C           7.2605   41.1442    7.4462 C.3     1  UNL1        0.0724
     12 C           8.9166   41.1399    9.1377 C.3     1  UNL1        0.0799
     13 N           8.1711   41.9946    8.2138 N.3     1  UNL1       -0.2685
     14 C           7.3522   42.8787    9.0269 C.3     1  UNL1        0.1007
     15 C           6.2905   42.0993    9.7273 C.ar    1  UNL1        0.0130
     16 C           6.4897   41.6293   11.0298 C.ar    1  UNL1        0.0959
     17 C           4.3331   40.6330   11.0371 C.ar    1  UNL1        0.0989
     18 C           4.0989   41.0802    9.7341 C.ar    1  UNL1        0.0204
     19 C           5.0870   41.8169    9.0777 C.ar    1  UNL1        0.0002
     20 N           5.5140   40.9136   11.6528 N.ar    1  UNL1       -0.2426
     21 N          14.1047   41.8499    7.0318 N.pl3   1  UNL1       -0.2833
     22 H          13.7762   41.8034    6.1049 H       1  UNL1        0.1550
     23 C          15.3050   42.6062    7.2427 C.ar    1  UNL1        0.1332
     24 C          16.2341   42.1530    8.1831 C.ar    1  UNL1        0.0345
     25 C          17.4081   42.8789    8.3943 C.ar    1  UNL1        0.0045
     26 C          17.6430   44.0476    7.6685 C.ar    1  UNL1        0.0208
     27 C          16.6932   44.4726    6.7376 C.ar    1  UNL1        0.1003
     28 N          15.5565   43.7503    6.5457 N.ar    1  UNL1       -0.2290
@<TRIPOS>BOND
     1     1     2    1
     2     2     7   ar
     3     3     4   ar
     4     4    21    1
     5     5     6   ar
     6     8     5    1
     7     8     9    1
     8     9    10    1
     9    10    11    1
    10    11    13    1
    11    12    13    1
    12    12     8    1
    13    14    13    1
    14    14    15    1
    15    16    20   ar
    16    17    18   ar
    17    19    15   ar
    18    23    28   ar
    19    24    25   ar
    20    26    27   ar
    21    21    23    1
    22     2     3   ar
    23     4     6   ar
    24     5     7   ar
    25    15    16   ar
    26    17    20   ar
    27    18    19   ar
    28    23    24   ar
    29    25    26   ar
    30    27    28   ar
    31    21    22    1
@<TRIPOS>MOLECULE
MolPort-020-278-623 MCULE-9206712680 PubChem-110255495
 28 31 0 0 0
SMALL
GASTEIGER

@<TRIPOS>ATOM
      1 C          17.1120   44.0616    6.7563 C.3     1  UNL1        0.0522
      2 C          16.0248   43.1106    7.1055 C.ar    1  UNL1        0.0635
      3 C          14.8196   43.1396    6.4061 C.ar    1  UNL1        0.0492
      4 C          13.8165   42.2291    6.7553 C.ar    1  UNL1        0.1357
      5 C          15.2250   41.3287    8.4364 C.ar    1  UNL1        0.1411
      6 N          14.0443   41.3448    7.7626 N.ar    1  UNL1       -0.2159
      7 N          16.2077   42.2094    8.1042 N.ar    1  UNL1       -0.2349
      8 C          15.4351   40.3365    9.5311 C.3     1  UNL1        0.0746
      9 C          16.9228   40.2290    9.8789 C.3     1  UNL1        0.0104
     10 C          17.1892   39.0519   10.8202 C.3     1  UNL1        0.0178
     11 C          16.4251   37.7835   10.4098 C.3     1  UNL1        0.0724
     12 C          14.8132   38.9806    9.1556 C.3     1  UNL1        0.0799
     13 N          15.8225   37.9242    9.0836 N.3     1  UNL1       -0.2685
     14 C          15.1158   36.6862    8.7980 C.3     1  UNL1        0.1007
     15 C          13.6992   36.7839    9.2548 C.ar    1  UNL1        0.0130
     16 C          12.8329   37.7330    8.7015 C.ar    1  UNL1        0.0959
     17 C          11.0667   36.9905   10.1060 C.ar    1  UNL1        0.0989
     18 C          11.9028   36.0335   10.6872 C.ar    1  UNL1        0.0204
     19 C          13.2275   35.9334   10.2570 C.ar    1  UNL1        0.0002
     20 N          11.5450   37.8142    9.1339 N.ar    1  UNL1       -0.2426
     21 N          12.5494   42.1996    6.0815 N.pl3   1  UNL1       -0.2833
     22 H          12.4548   42.7974    5.3049 H       1  UNL1        0.1550
     23 C          11.4053   41.3994    6.4095 C.ar    1  UNL1        0.1332
     24 C          11.0990   40.2959    5.6086 C.ar    1  UNL1        0.0345
     25 C           9.9898   39.5071    5.9203 C.ar    1  UNL1        0.0045
     26 C           9.1977   39.8264    7.0242 C.ar    1  UNL1        0.0208
     27 C           9.5314   40.9364    7.8024 C.ar    1  UNL1        0.1003
     28 N          10.6171   41.6912    7.4825 N.ar    1  UNL1       -0.2290
@<TRIPOS>BOND
     1     1     2    1
     2     2     7   ar
     3     3     4   ar
     4     4    21    1
     5     5     6   ar
     6     8     5    1
     7     8     9    1
     8     9    10    1
     9    10    11    1
    10    11    13    1
    11    12    13    1
    12    12     8    1
    13    14    13    1
    14    14    15    1
    15    16    20   ar
    16    17    18   ar
    17    19    15   ar
    18    23    28   ar
    19    24    25   ar
    20    26    27   ar
    21    21    23    1
    22     2     3   ar
    23     4     6   ar
    24     5     7   ar
    25    15    16   ar
    26    17    20   ar
    27    18    19   ar
    28    23    24   ar
    29    25    26   ar
    30    27    28   ar
    31    21    22    1
@<TRIPOS>MOLECULE
MolPort-020-278-623 MCULE-9206712680 PubChem-110255495
 28 31 0 0 0
SMALL
GASTEIGER

@<TRIPOS>ATOM
      1 C          17.3064   43.9689    6.8554 C.3     1  UNL1        0.0522
      2 C          16.1552   43.0788    7.1567 C.ar    1  UNL1        0.0635
      3 C          14.9842   43.1728    6.4067 C.ar    1  UNL1        0.0492
      4 C          13.9190   42.3186    6.7117 C.ar    1  UNL1        0.1357
      5 C          15.2037   41.3442    8.4498 C.ar    1  UNL1        0.1411
      6 N          14.0553   41.4241    7.7265 N.ar    1  UNL1       -0.2159
      7 N          16.2462   42.1699    8.1609 N.ar    1  UNL1       -0.2349
      8 C          15.3128   40.3431    9.5510 C.3     1  UNL1        0.0746
      9 C          16.7828   40.0611    9.8755 C.3     1  UNL1        0.0104
     10 C          16.9229   38.8684   10.8243 C.3     1  UNL1        0.0178
     11 C          16.0056   37.6972   10.4395 C.3     1  UNL1        0.0724
     12 C          14.5268   39.0683    9.1996 C.3     1  UNL1        0.0799
     13 N          15.4012   37.8982    9.1219 N.3     1  UNL1       -0.2685
     14 C          14.5466   36.7514    8.8606 C.3     1  UNL1        0.1007
     15 C          15.3565   35.6132    8.3376 C.ar    1  UNL1        0.0130
     16 C          15.0849   34.2997    8.7353 C.ar    1  UNL1        0.0959
     17 C          16.8648   33.4870    7.3882 C.ar    1  UNL1        0.0989
     18 C          17.1708   34.7854    6.9720 C.ar    1  UNL1        0.0204
     19 C          16.4102   35.8530    7.4531 C.ar    1  UNL1        0.0002
     20 N          15.8374   33.2726    8.2546 N.ar    1  UNL1       -0.2426
     21 N          12.6820   42.3576    5.9846 N.pl3   1  UNL1       -0.2833
     22 H          12.6252   43.0177    5.2565 H       1  UNL1        0.1550
     23 C          11.5192   41.5452    6.1970 C.ar    1  UNL1        0.1332
     24 C          11.2931   40.4536    5.3544 C.ar    1  UNL1        0.0345
     25 C          10.1665   39.6532    5.5538 C.ar    1  UNL1        0.0045
     26 C           9.2776   39.9493    6.5882 C.ar    1  UNL1        0.0208
     27 C           9.5329   41.0480    7.4108 C.ar    1  UNL1        0.1003
     28 N          10.6371   41.8144    7.2006 N.ar    1  UNL1       -0.2290
@<TRIPOS>BOND
     1     1     2    1
     2     2     7   ar
     3     3     4   ar
     4     4    21    1
     5     5     6   ar
     6     8     5    1
     7     8     9    1
     8     9    10    1
     9    10    11    1
    10    11    13    1
    11    12    13    1
    12    12     8    1
    13    14    13    1
    14    14    15    1
    15    16    20   ar
    16    17    18   ar
    17    19    15   ar
    18    23    28   ar
    19    24    25   ar
    20    26    27   ar
    21    21    23    1
    22     2     3   ar
    23     4     6   ar
    24     5     7   ar
    25    15    16   ar
    26    17    20   ar
    27    18    19   ar
    28    23    24   ar
    29    25    26   ar
    30    27    28   ar
    31    21    22    1
@<TRIPOS>MOLECULE
MolPort-020-278-623 MCULE-9206712680 PubChem-110255495
 28 31 0 0 0
SMALL
GASTEIGER

@<TRIPOS>ATOM
      1 C          10.6800   40.7640    5.2163 C.3     1  UNL1        0.0522
      2 C          11.2986   41.1153    6.5210 C.ar    1  UNL1        0.0635
      3 C          12.6774   41.0058    6.6928 C.ar    1  UNL1        0.0492
      4 C          13.2308   41.3475    7.9314 C.ar    1  UNL1        0.1357
      5 C          11.0684   41.8769    8.7466 C.ar    1  UNL1        0.1411
      6 N          12.4119   41.7756    8.9287 N.ar    1  UNL1       -0.2159
      7 N          10.5199   41.5477    7.5455 N.ar    1  UNL1       -0.2349
      8 C          10.2072   42.3576    9.8665 C.3     1  UNL1        0.0746
      9 C           9.8146   41.1921   10.7793 C.3     1  UNL1        0.0104
     10 C           8.7421   41.6129   11.7868 C.3     1  UNL1        0.0178
     11 C           7.6353   42.4665   11.1485 C.3     1  UNL1        0.0724
     12 C           8.9885   43.1204    9.3195 C.3     1  UNL1        0.0799
     13 N           7.7322   42.4681    9.6883 N.3     1  UNL1       -0.2685
     14 C           6.6583   43.3097    9.1863 C.3     1  UNL1        0.1007
     15 C           5.3434   42.6276    9.3619 C.ar    1  UNL1        0.0130
     16 C           4.1453   43.3205    9.1584 C.ar    1  UNL1        0.0959
     17 C           2.8896   41.3786    9.7020 C.ar    1  UNL1        0.0989
     18 C           4.0644   40.6543    9.9205 C.ar    1  UNL1        0.0204
     19 C           5.2976   41.2868    9.7495 C.ar    1  UNL1        0.0002
     20 N           2.9535   42.6860    9.3294 N.ar    1  UNL1       -0.2426
     21 N          14.6412   41.2595    8.1834 N.pl3   1  UNL1       -0.2833
     22 H          14.9569   40.4292    8.6079 H       1  UNL1        0.1550
     23 C          15.6432   42.2421    7.8879 C.ar    1  UNL1        0.1332
     24 C          16.9019   42.1257    8.4839 C.ar    1  UNL1        0.0345
     25 C          17.8867   43.0741    8.2008 C.ar    1  UNL1        0.0045
     26 C          17.6072   44.1278    7.3293 C.ar    1  UNL1        0.0208
     27 C          16.3389   44.2148    6.7522 C.ar    1  UNL1        0.1003
     28 N          15.3938   43.2796    7.0399 N.ar    1  UNL1       -0.2290
@<TRIPOS>BOND
     1     1     2    1
     2     2     7   ar
     3     3     4   ar
     4     4    21    1
     5     5     6   ar
     6     8     5    1
     7     8     9    1
     8     9    10    1
     9    10    11    1
    10    11    13    1
    11    12    13    1
    12    12     8    1
    13    14    13    1
    14    14    15    1
    15    16    20   ar
    16    17    18   ar
    17    19    15   ar
    18    23    28   ar
    19    24    25   ar
    20    26    27   ar
    21    21    23    1
    22     2     3   ar
    23     4     6   ar
    24     5     7   ar
    25    15    16   ar
    26    17    20   ar
    27    18    19   ar
    28    23    24   ar
    29    25    26   ar
    30    27    28   ar
    31    21    22    1
@<TRIPOS>MOLECULE
MolPort-020-278-623 MCULE-9206712680 PubChem-110255495
 28 31 0 0 0
SMALL
GASTEIGER

@<TRIPOS>ATOM
      1 C          16.3639   43.7074    6.9497 C.3     1  UNL1        0.0522
      2 C          15.1930   42.8071    7.1133 C.ar    1  UNL1        0.0635
      3 C          14.0370   43.0209    6.3646 C.ar    1  UNL1        0.0492
      4 C          12.9527   42.1540    6.5378 C.ar    1  UNL1        0.1357
      5 C          14.1906   40.9352    8.1513 C.ar    1  UNL1        0.1411
      6 N          13.0565   41.1311    7.4275 N.ar    1  UNL1       -0.2159
      7 N          15.2514   41.7722    7.9899 N.ar    1  UNL1       -0.2349
      8 C          14.2638   39.7958    9.1121 C.3     1  UNL1        0.0746
      9 C          13.4012   40.0784   10.3457 C.3     1  UNL1        0.0104
     10 C          13.6494   39.0435   11.4456 C.3     1  UNL1        0.0178
     11 C          15.1417   38.7293   11.6344 C.3     1  UNL1        0.0724
     12 C          15.7276   39.4856    9.4690 C.3     1  UNL1        0.0799
     13 N          15.9866   39.6695   10.8970 N.3     1  UNL1       -0.2685
     14 C          17.3679   39.2793   11.1274 C.3     1  UNL1        0.1007
     15 C          17.7045   38.0718   10.3189 C.ar    1  UNL1        0.0130
     16 C          16.8000   37.0103   10.2079 C.ar    1  UNL1        0.0959
     17 C          18.3225   35.8113    8.8338 C.ar    1  UNL1        0.0989
     18 C          19.2548   36.8482    8.9256 C.ar    1  UNL1        0.0204
     19 C          18.9405   37.9838    9.6749 C.ar    1  UNL1        0.0002
     20 N          17.1247   35.9124    9.4721 N.ar    1  UNL1       -0.2426
     21 N          11.7295   42.3116    5.8036 N.pl3   1  UNL1       -0.2833
     22 H          11.6083   43.1706    5.3380 H       1  UNL1        0.1550
     23 C          10.6635   41.3615    5.6702 C.ar    1  UNL1        0.1332
     24 C           9.5056   41.5316    6.4340 C.ar    1  UNL1        0.0345
     25 C           8.4595   40.6151    6.3098 C.ar    1  UNL1        0.0045
     26 C           8.5784   39.5395    5.4284 C.ar    1  UNL1        0.0208
     27 C           9.7493   39.3987    4.6813 C.ar    1  UNL1        0.1003
     28 N          10.7564   40.3034    4.8159 N.ar    1  UNL1       -0.2290
@<TRIPOS>BOND
     1     1     2    1
     2     2     7   ar
     3     3     4   ar
     4     4    21    1
     5     5     6   ar
     6     8     5    1
     7     8     9    1
     8     9    10    1
     9    10    11    1
    10    11    13    1
    11    12    13    1
    12    12     8    1
    13    14    13    1
    14    14    15    1
    15    16    20   ar
    16    17    18   ar
    17    19    15   ar
    18    23    28   ar
    19    24    25   ar
    20    26    27   ar
    21    21    23    1
    22     2     3   ar
    23     4     6   ar
    24     5     7   ar
    25    15    16   ar
    26    17    20   ar
    27    18    19   ar
    28    23    24   ar
    29    25    26   ar
    30    27    28   ar
    31    21    22    1
@<TRIPOS>MOLECULE
MolPort-020-278-623 MCULE-9206712680 PubChem-110255495
 28 31 0 0 0
SMALL
GASTEIGER

@<TRIPOS>ATOM
      1 C          10.5417   41.0655    5.5085 C.3     1  UNL1        0.0522
      2 C          11.2326   41.2338    6.8134 C.ar    1  UNL1        0.0635
      3 C          12.6131   41.0629    6.9003 C.ar    1  UNL1        0.0492
      4 C          13.2355   41.2320    8.1418 C.ar    1  UNL1        0.1357
      5 C          11.1338   41.7203    9.1242 C.ar    1  UNL1        0.1411
      6 N          12.4798   41.5574    9.2241 N.ar    1  UNL1       -0.2159
      7 N          10.5185   41.5590    7.9211 N.ar    1  UNL1       -0.2349
      8 C          10.3435   42.0840   10.3366 C.3     1  UNL1        0.0746
      9 C          10.4031   40.9579   11.3730 C.3     1  UNL1        0.0104
     10 C           9.4109   41.1997   12.5130 C.3     1  UNL1        0.0178
     11 C           8.0404   41.6800   12.0108 C.3     1  UNL1        0.0724
     12 C           8.9030   42.4584    9.9481 C.3     1  UNL1        0.0799
     13 N           7.9266   41.5551   10.5571 N.3     1  UNL1       -0.2685
     14 C           6.6100   42.0461   10.1844 C.3     1  UNL1        0.1007
     15 C           6.5818   42.3973    8.7349 C.ar    1  UNL1        0.0130
     16 C           6.8748   41.4374    7.7604 C.ar    1  UNL1        0.0959
     17 C           6.5512   43.0389    6.0359 C.ar    1  UNL1        0.0989
     18 C           6.2586   44.0271    6.9795 C.ar    1  UNL1        0.0204
     19 C           6.2762   43.7006    8.3371 C.ar    1  UNL1        0.0002
     20 N           6.8516   41.7752    6.4422 N.ar    1  UNL1       -0.2426
     21 N          14.6520   41.0714    8.3094 N.pl3   1  UNL1       -0.2833
     22 H          14.9524   40.2086    8.6762 H       1  UNL1        0.1550
     23 C          15.6801   42.0235    8.0037 C.ar    1  UNL1        0.1332
     24 C          15.3555   43.1489    7.2414 C.ar    1  UNL1        0.0345
     25 C          16.3472   44.0847    6.9407 C.ar    1  UNL1        0.0045
     26 C          17.6502   43.8891    7.4008 C.ar    1  UNL1        0.0208
     27 C          17.9405   42.7533    8.1589 C.ar    1  UNL1        0.1003
     28 N          16.9596   41.8542    8.4421 N.ar    1  UNL1       -0.2290
@<TRIPOS>BOND
     1     1     2    1
     2     2     7   ar
     3     3     4   ar
     4     4    21    1
     5     5     6   ar
     6     8     5    1
     7     8     9    1
     8     9    10    1
     9    10    11    1
    10    11    13    1
    11    12    13    1
    12    12     8    1
    13    14    13    1
    14    14    15    1
    15    16    20   ar
    16    17    18   ar
    17    19    15   ar
    18    23    28   ar
    19    24    25   ar
    20    26    27   ar
    21    21    23    1
    22     2     3   ar
    23     4     6   ar
    24     5     7   ar
    25    15    16   ar
    26    17    20   ar
    27    18    19   ar
    28    23    24   ar
    29    25    26   ar
    30    27    28   ar
    31    21    22    1
@<TRIPOS>MOLECULE
MolPort-020-278-623 MCULE-9206712680 PubChem-110255495
 28 31 0 0 0
SMALL
GASTEIGER

@<TRIPOS>ATOM
      1 C          13.3172   39.5823   11.3064 C.3     1  UNL1        0.0522
      2 C          12.7764   40.0930   10.0199 C.ar    1  UNL1        0.0635
      3 C          13.6143   40.7524    9.1223 C.ar    1  UNL1        0.0492
      4 C          13.0769   41.2183    7.9176 C.ar    1  UNL1        0.1357
      5 C          10.9527   40.3709    8.5425 C.ar    1  UNL1        0.1411
      6 N          11.7581   41.0154    7.6568 N.ar    1  UNL1       -0.2159
      7 N          11.4655   39.9130    9.7169 N.ar    1  UNL1       -0.2349
      8 C           9.5121   40.1640    8.2129 C.3     1  UNL1        0.0746
      9 C           9.2210   40.6111    6.7772 C.3     1  UNL1        0.0104
     10 C           7.7164   40.6371    6.4982 C.3     1  UNL1        0.0178
     11 C           6.9130   41.2592    7.6509 C.3     1  UNL1        0.0724
     12 C           8.6167   40.8673    9.2473 C.3     1  UNL1        0.0799
     13 N           7.7890   41.9037    8.6302 N.3     1  UNL1       -0.2685
     14 C           6.9391   42.4429    9.6792 C.3     1  UNL1        0.1007
     15 C           5.8231   43.2333    9.0835 C.ar    1  UNL1        0.0130
     16 C           4.4938   42.9669    9.4290 C.ar    1  UNL1        0.0959
     17 C           3.7349   44.6821    7.9711 C.ar    1  UNL1        0.0989
     18 C           5.0489   44.9742    7.5962 C.ar    1  UNL1        0.0204
     19 C           6.0972   44.2419    8.1574 C.ar    1  UNL1        0.0002
     20 N           3.4862   43.6923    8.8715 N.ar    1  UNL1       -0.2426
     21 N          13.8771   41.9069    6.9449 N.pl3   1  UNL1       -0.2833
     22 H          13.5365   41.9061    6.0212 H       1  UNL1        0.1550
     23 C          15.1157   42.5959    7.1642 C.ar    1  UNL1        0.1332
     24 C          15.3285   43.8236    6.5314 C.ar    1  UNL1        0.0345
     25 C          16.5289   44.5055    6.7403 C.ar    1  UNL1        0.0045
     26 C          17.5039   43.9572    7.5751 C.ar    1  UNL1        0.0208
     27 C          17.2593   42.7282    8.1906 C.ar    1  UNL1        0.1003
     28 N          16.0825   42.0805    7.9751 N.ar    1  UNL1       -0.2290
@<TRIPOS>BOND
     1     1     2    1
     2     2     7   ar
     3     3     4   ar
     4     4    21    1
     5     5     6   ar
     6     8     5    1
     7     8     9    1
     8     9    10    1
     9    10    11    1
    10    11    13    1
    11    12    13    1
    12    12     8    1
    13    14    13    1
    14    14    15    1
    15    16    20   ar
    16    17    18   ar
    17    19    15   ar
    18    23    28   ar
    19    24    25   ar
    20    26    27   ar
    21    21    23    1
    22     2     3   ar
    23     4     6   ar
    24     5     7   ar
    25    15    16   ar
    26    17    20   ar
    27    18    19   ar
    28    23    24   ar
    29    25    26   ar
    30    27    28   ar
    31    21    22    1
