@<TRIPOS>MOLECULE
MolPort-003-020-505 4087322 CSSS03437186032 LN01391649 MCULE-7357282413 PubChem-5098654 ZINC000004087322
 30 33 0 0 0
SMALL
GASTEIGER

@<TRIPOS>ATOM
      1 C           9.2184   41.7371   10.1957 C.ar    1  UNL1        0.0898
      2 C          11.1658   40.7855    8.9602 C.ar    1  UNL1        0.0096
      3 C          11.3261   40.7454   10.3428 C.ar    1  UNL1       -0.0081
      4 C          12.5285   40.1587   11.0072 C.3     1  UNL1        0.0320
      5 C          10.2279   41.2732   11.0444 C.ar    1  UNL1        0.0843
      6 S           9.6605   41.4449    8.6020 S.2     1  UNL1       -0.0759
      7 C           6.9486   41.5021   11.3160 C.2     1  UNL1        0.2268
      8 N           7.9289   42.2323   10.5740 N.am    1  UNL1       -0.2784
      9 O           7.2766   40.5071   12.0156 O.2     1  UNL1       -0.2747
     10 H           7.6987   43.1498   10.3012 H       1  UNL1        0.1553
     11 C           5.5223   41.9324   11.2663 C.3     1  UNL1        0.0901
     12 C           4.8984   41.5822    9.9197 C.3     1  UNL1        0.0359
     13 C           4.8449   42.7671    9.0103 C.ar    1  UNL1       -0.0217
     14 C           5.8838   43.0208    8.1053 C.ar    1  UNL1       -0.0043
     15 C           5.8190   44.1313    7.2580 C.ar    1  UNL1       -0.0003
     16 C           4.7178   44.9912    7.3152 C.ar    1  UNL1       -0.0000
     17 C           3.6825   44.7422    8.2214 C.ar    1  UNL1       -0.0003
     18 C           3.7475   43.6326    9.0694 C.ar    1  UNL1       -0.0043
     19 C          10.1229   41.2242   12.4818 C.1     1  UNL1        0.1019
     20 N          10.0420   41.1844   13.6357 N.1     1  UNL1       -0.1908
     21 C          12.1159   40.2348    7.9468 C.3     1  UNL1        0.0590
     22 C          13.1441   41.2528    7.5871 C.ar    1  UNL1       -0.0141
     23 C          14.4412   41.1652    8.1425 C.ar    1  UNL1       -0.0006
     24 C          15.4181   42.1286    7.8319 C.ar    1  UNL1        0.0399
     25 C          15.0527   43.1588    6.9687 C.ar    1  UNL1        0.1764
     26 C          13.8060   43.2472    6.4383 C.ar    1  UNL1        0.1761
     27 C          15.0062   45.0155    5.6492 C.3     1  UNL1        0.4294
     28 C          12.8126   42.3136    6.7220 C.ar    1  UNL1        0.0363
     29 O          13.7294   44.3618    5.6278 O.3     1  UNL1       -0.4346
     30 O          15.8206   44.2133    6.5164 O.3     1  UNL1       -0.4346
@<TRIPOS>BOND
     1     1     8    1
     2     1     6   ar
     3    11     7    1
     4    11    12    1
     5    12    13    1
     6    14    15   ar
     7    16    17   ar
     8    18    13   ar
     9     2     6   ar
    10     3     5   ar
    11     4     3    1
    12     5    19    1
    13    21     2    1
    14    21    22    1
    15    23    24   ar
    16    25    26   ar
    17    25    30    1
    18    26    29    1
    19    27    29    1
    20    27    30    1
    21    28    22   ar
    22     8     7   am
    23     7     9    2
    24    13    14   ar
    25    15    16   ar
    26    17    18   ar
    27     2     3   ar
    28     5     1   ar
    29    22    23   ar
    30    24    25   ar
    31    26    28   ar
    32    19    20    3
    33     8    10    1
@<TRIPOS>MOLECULE
MolPort-003-020-505 4087322 CSSS03437186032 LN01391649 MCULE-7357282413 PubChem-5098654 ZINC000004087322
 30 33 0 0 0
SMALL
GASTEIGER

@<TRIPOS>ATOM
      1 C           9.1908   41.7683    8.6380 C.ar    1  UNL1        0.0898
      2 C          11.4941   40.8901    8.2537 C.ar    1  UNL1        0.0096
      3 C          11.1407   40.9198    9.6002 C.ar    1  UNL1       -0.0081
      4 C          12.0422   40.4399   10.6903 C.3     1  UNL1        0.0320
      5 C           9.8403   41.4065    9.8221 C.ar    1  UNL1        0.0843
      6 S          10.1960   41.4364    7.3342 S.2     1  UNL1       -0.0759
      7 C           7.2461   42.6889    7.2842 C.2     1  UNL1        0.2268
      8 N           7.8318   42.1964    8.4921 N.am    1  UNL1       -0.2784
      9 O           7.7665   42.4385    6.1646 O.2     1  UNL1       -0.2747
     10 H           7.2542   42.1475    9.2878 H       1  UNL1        0.1553
     11 C           5.9979   43.5009    7.3537 C.3     1  UNL1        0.0901
     12 C           5.6565   43.8450    8.7995 C.3     1  UNL1        0.0359
     13 C           4.8921   42.7457    9.4636 C.ar    1  UNL1       -0.0217
     14 C           3.5418   42.5291    9.1593 C.ar    1  UNL1       -0.0043
     15 C           2.8398   41.4946    9.7858 C.ar    1  UNL1       -0.0003
     16 C           3.4847   40.6768   10.7189 C.ar    1  UNL1       -0.0000
     17 C           4.8310   40.8948   11.0275 C.ar    1  UNL1       -0.0003
     18 C           5.5328   41.9296   10.4021 C.ar    1  UNL1       -0.0043
     19 C           9.2205   41.4129   11.1240 C.1     1  UNL1        0.1019
     20 N           8.7259   41.4170   12.1705 N.1     1  UNL1       -0.1908
     21 C          12.7714   40.3578    7.6897 C.3     1  UNL1        0.0590
     22 C          13.7233   41.4708    7.4105 C.ar    1  UNL1       -0.0141
     23 C          14.9981   41.4725    8.0216 C.ar    1  UNL1       -0.0006
     24 C          15.9015   42.5252    7.7873 C.ar    1  UNL1        0.0399
     25 C          15.4868   43.5514    6.9420 C.ar    1  UNL1        0.1764
     26 C          14.2610   43.5538    6.3581 C.ar    1  UNL1        0.1761
     27 C          15.3384   45.4438    5.6822 C.3     1  UNL1        0.4294
     28 C          13.3398   42.5304    6.5657 C.ar    1  UNL1        0.0363
     29 O          14.1243   44.6865    5.5812 O.3     1  UNL1       -0.4346
     30 O          16.1804   44.6822    6.5595 O.3     1  UNL1       -0.4346
@<TRIPOS>BOND
     1     1     8    1
     2     1     6   ar
     3    11     7    1
     4    11    12    1
     5    12    13    1
     6    14    15   ar
     7    16    17   ar
     8    18    13   ar
     9     2     6   ar
    10     3     5   ar
    11     4     3    1
    12     5    19    1
    13    21     2    1
    14    21    22    1
    15    23    24   ar
    16    25    26   ar
    17    25    30    1
    18    26    29    1
    19    27    29    1
    20    27    30    1
    21    28    22   ar
    22     8     7   am
    23     7     9    2
    24    13    14   ar
    25    15    16   ar
    26    17    18   ar
    27     2     3   ar
    28     5     1   ar
    29    22    23   ar
    30    24    25   ar
    31    26    28   ar
    32    19    20    3
    33     8    10    1
@<TRIPOS>MOLECULE
MolPort-003-020-505 4087322 CSSS03437186032 LN01391649 MCULE-7357282413 PubChem-5098654 ZINC000004087322
 30 33 0 0 0
SMALL
GASTEIGER

@<TRIPOS>ATOM
      1 C          11.7575   40.1119    9.0004 C.ar    1  UNL1        0.0898
      2 C          14.2353   40.1669    9.2867 C.ar    1  UNL1        0.0096
      3 C          13.6635   38.9744    9.7223 C.ar    1  UNL1       -0.0081
      4 C          14.4646   37.8387   10.2698 C.3     1  UNL1        0.0320
      5 C          12.2679   38.9348    9.5559 C.ar    1  UNL1        0.0843
      6 S          13.0267   41.1614    8.6709 S.2     1  UNL1       -0.0759
      7 C           9.5599   41.3813    9.1472 C.2     1  UNL1        0.2268
      8 N          10.4057   40.3657    8.6013 N.am    1  UNL1       -0.2784
      9 O          10.0480   42.3712    9.7546 O.2     1  UNL1       -0.2747
     10 H          10.0281   39.7947    7.8938 H       1  UNL1        0.1553
     11 C           8.0824   41.2689    8.9853 C.3     1  UNL1        0.0901
     12 C           7.3674   42.3611    9.7736 C.3     1  UNL1        0.0359
     13 C           5.8819   42.2165    9.6961 C.ar    1  UNL1       -0.0217
     14 C           5.0899   43.2470    9.1729 C.ar    1  UNL1       -0.0043
     15 C           3.7014   43.0967    9.1033 C.ar    1  UNL1       -0.0003
     16 C           3.1019   41.9181    9.5584 C.ar    1  UNL1       -0.0000
     17 C           3.8905   40.8907   10.0854 C.ar    1  UNL1       -0.0003
     18 C           5.2786   41.0412   10.1561 C.ar    1  UNL1       -0.0043
     19 C          11.4826   37.7557    9.8250 C.1     1  UNL1        0.1019
     20 N          10.8528   36.8082   10.0379 N.1     1  UNL1       -0.1908
     21 C          15.6950   40.4855    9.2587 C.3     1  UNL1        0.0590
     22 C          15.9443   41.7249    8.4684 C.ar    1  UNL1       -0.0141
     23 C          17.1227   42.4732    8.6919 C.ar    1  UNL1       -0.0006
     24 C          17.3650   43.6570    7.9714 C.ar    1  UNL1        0.0399
     25 C          16.4033   44.0534    7.0452 C.ar    1  UNL1        0.1764
     26 C          15.2687   43.3386    6.8329 C.ar    1  UNL1        0.1761
     27 C          15.2005   45.1468    5.4490 C.3     1  UNL1        0.4294
     28 C          14.9935   42.1627    7.5262 C.ar    1  UNL1        0.0363
     29 O          14.5045   43.9650    5.8692 O.3     1  UNL1       -0.4346
     30 O          16.4076   45.1635    6.2244 O.3     1  UNL1       -0.4346
@<TRIPOS>BOND
     1     1     8    1
     2     1     6   ar
     3    11     7    1
     4    11    12    1
     5    12    13    1
     6    14    15   ar
     7    16    17   ar
     8    18    13   ar
     9     2     6   ar
    10     3     5   ar
    11     4     3    1
    12     5    19    1
    13    21     2    1
    14    21    22    1
    15    23    24   ar
    16    25    26   ar
    17    25    30    1
    18    26    29    1
    19    27    29    1
    20    27    30    1
    21    28    22   ar
    22     8     7   am
    23     7     9    2
    24    13    14   ar
    25    15    16   ar
    26    17    18   ar
    27     2     3   ar
    28     5     1   ar
    29    22    23   ar
    30    24    25   ar
    31    26    28   ar
    32    19    20    3
    33     8    10    1
@<TRIPOS>MOLECULE
MolPort-003-020-505 4087322 CSSS03437186032 LN01391649 MCULE-7357282413 PubChem-5098654 ZINC000004087322
 30 33 0 0 0
SMALL
GASTEIGER

@<TRIPOS>ATOM
      1 C          10.6055   41.7174    9.3542 C.ar    1  UNL1        0.0898
      2 C          12.8190   40.5670    9.3187 C.ar    1  UNL1        0.0096
      3 C          12.2042   40.5256   10.5674 C.ar    1  UNL1       -0.0081
      4 C          12.8012   39.8308   11.7473 C.3     1  UNL1        0.0320
      5 C          10.9525   41.1657   10.5911 C.ar    1  UNL1        0.0843
      6 S          11.8096   41.3669    8.2370 S.2     1  UNL1       -0.0759
      7 C           8.8598   43.5531    9.5661 C.2     1  UNL1        0.2268
      8 N           9.3651   42.3404    9.0014 N.am    1  UNL1       -0.2784
      9 O           9.6287   44.3665   10.1440 O.2     1  UNL1       -0.2747
     10 H           8.8159   41.8979    8.3146 H       1  UNL1        0.1553
     11 C           7.4050   43.8602    9.4591 C.3     1  UNL1        0.0901
     12 C           6.9626   43.8806    7.9999 C.3     1  UNL1        0.0359
     13 C           6.9942   42.5150    7.3934 C.ar    1  UNL1       -0.0217
     14 C           7.9513   42.1852    6.4249 C.ar    1  UNL1       -0.0043
     15 C           7.9714   40.9025    5.8684 C.ar    1  UNL1       -0.0003
     16 C           7.0342   39.9484    6.2766 C.ar    1  UNL1       -0.0000
     17 C           6.0751   40.2775    7.2394 C.ar    1  UNL1       -0.0003
     18 C           6.0541   41.5601    7.7952 C.ar    1  UNL1       -0.0043
     19 C          10.0851   41.1420   11.7428 C.1     1  UNL1        0.1019
     20 N           9.3903   41.1259   12.6684 N.1     1  UNL1       -0.1908
     21 C          14.1128   39.9155    8.9518 C.3     1  UNL1        0.0590
     22 C          15.1173   40.9399    8.5464 C.ar    1  UNL1       -0.0141
     23 C          16.4007   40.9358    9.1391 C.ar    1  UNL1       -0.0006
     24 C          17.3544   41.9076    8.7852 C.ar    1  UNL1        0.0399
     25 C          16.9800   42.8614    7.8419 C.ar    1  UNL1        0.1764
     26 C          15.7462   42.8698    7.2753 C.ar    1  UNL1        0.1761
     27 C          16.9102   44.6178    6.3925 C.3     1  UNL1        0.4294
     28 C          14.7758   41.9252    7.5997 C.ar    1  UNL1        0.0363
     29 O          15.6561   43.9213    6.3857 O.3     1  UNL1       -0.4346
     30 O          17.7257   43.9069    7.3350 O.3     1  UNL1       -0.4346
@<TRIPOS>BOND
     1     1     8    1
     2     1     6   ar
     3    11     7    1
     4    11    12    1
     5    12    13    1
     6    14    15   ar
     7    16    17   ar
     8    18    13   ar
     9     2     6   ar
    10     3     5   ar
    11     4     3    1
    12     5    19    1
    13    21     2    1
    14    21    22    1
    15    23    24   ar
    16    25    26   ar
    17    25    30    1
    18    26    29    1
    19    27    29    1
    20    27    30    1
    21    28    22   ar
    22     8     7   am
    23     7     9    2
    24    13    14   ar
    25    15    16   ar
    26    17    18   ar
    27     2     3   ar
    28     5     1   ar
    29    22    23   ar
    30    24    25   ar
    31    26    28   ar
    32    19    20    3
    33     8    10    1
@<TRIPOS>MOLECULE
MolPort-003-020-505 4087322 CSSS03437186032 LN01391649 MCULE-7357282413 PubChem-5098654 ZINC000004087322
 30 33 0 0 0
SMALL
GASTEIGER

@<TRIPOS>ATOM
      1 C           9.9911   42.1093    9.4798 C.ar    1  UNL1        0.0898
      2 C          12.1112   41.0575    8.6903 C.ar    1  UNL1        0.0096
      3 C          11.8740   40.8518   10.0468 C.ar    1  UNL1       -0.0081
      4 C          12.7837   40.0524   10.9213 C.3     1  UNL1        0.0320
      5 C          10.6762   41.4357   10.4956 C.ar    1  UNL1        0.0843
      6 S          10.8329   41.9341    8.0371 S.2     1  UNL1       -0.0759
      7 C           7.8360   42.9859    8.4555 C.2     1  UNL1        0.2268
      8 N           8.6980   42.7191    9.5647 N.am    1  UNL1       -0.2784
      9 O           7.9789   42.3732    7.3639 O.2     1  UNL1       -0.2747
     10 H           8.3765   42.9753   10.4593 H       1  UNL1        0.1553
     11 C           6.7491   43.9959    8.5990 C.3     1  UNL1        0.0901
     12 C           5.3955   43.3870    8.2495 C.3     1  UNL1        0.0359
     13 C           4.8091   42.6427    9.4053 C.ar    1  UNL1       -0.0217
     14 C           5.6005   41.7813   10.1762 C.ar    1  UNL1       -0.0043
     15 C           5.0394   41.0938   11.2570 C.ar    1  UNL1       -0.0003
     16 C           3.6867   41.2640   11.5676 C.ar    1  UNL1       -0.0000
     17 C           2.8942   42.1195   10.7962 C.ar    1  UNL1       -0.0003
     18 C           3.4546   42.8060    9.7149 C.ar    1  UNL1       -0.0043
     19 C          10.1693   41.2486   11.8325 C.1     1  UNL1        0.1019
     20 N           9.7608   41.0956   12.9046 N.1     1  UNL1       -0.1908
     21 C          13.2526   40.5025    7.9014 C.3     1  UNL1        0.0590
     22 C          14.2487   41.5705    7.6014 C.ar    1  UNL1       -0.0141
     23 C          13.9605   42.5399    6.6136 C.ar    1  UNL1       -0.0006
     24 C          14.8970   43.5423    6.3014 C.ar    1  UNL1        0.0399
     25 C          16.1037   43.5330    6.9968 C.ar    1  UNL1        0.1764
     26 C          16.3840   42.5998    7.9423 C.ar    1  UNL1        0.1761
     27 C          18.1882   43.9833    7.7983 C.3     1  UNL1        0.4294
     28 C          15.4833   41.5925    8.2787 C.ar    1  UNL1        0.0363
     29 O          17.6426   42.8328    8.4590 O.3     1  UNL1       -0.4346
     30 O          17.1722   44.3985    6.8741 O.3     1  UNL1       -0.4346
@<TRIPOS>BOND
     1     1     8    1
     2     1     6   ar
     3    11     7    1
     4    11    12    1
     5    12    13    1
     6    14    15   ar
     7    16    17   ar
     8    18    13   ar
     9     2     6   ar
    10     3     5   ar
    11     4     3    1
    12     5    19    1
    13    21     2    1
    14    21    22    1
    15    23    24   ar
    16    25    26   ar
    17    25    30    1
    18    26    29    1
    19    27    29    1
    20    27    30    1
    21    28    22   ar
    22     8     7   am
    23     7     9    2
    24    13    14   ar
    25    15    16   ar
    26    17    18   ar
    27     2     3   ar
    28     5     1   ar
    29    22    23   ar
    30    24    25   ar
    31    26    28   ar
    32    19    20    3
    33     8    10    1
@<TRIPOS>MOLECULE
MolPort-003-020-505 4087322 CSSS03437186032 LN01391649 MCULE-7357282413 PubChem-5098654 ZINC000004087322
 30 33 0 0 0
SMALL
GASTEIGER

@<TRIPOS>ATOM
      1 C          10.3102   41.5290    9.3021 C.ar    1  UNL1        0.0898
      2 C          11.9709   41.6127    7.4421 C.ar    1  UNL1        0.0096
      3 C          12.4810   41.0342    8.6014 C.ar    1  UNL1       -0.0081
      4 C          13.8692   40.4914    8.6987 C.3     1  UNL1        0.0320
      5 C          11.5467   40.9772    9.6507 C.ar    1  UNL1        0.0843
      6 S          10.3615   42.0284    7.6994 S.2     1  UNL1       -0.0759
      7 C           8.7191   42.5830   10.9813 C.2     1  UNL1        0.2268
      8 N           9.1134   41.5377   10.0888 N.am    1  UNL1       -0.2784
      9 O           9.1986   43.7427   10.8704 O.2     1  UNL1       -0.2747
     10 H           8.5137   40.7611   10.0085 H       1  UNL1        0.1553
     11 C           7.7200   42.2957   12.0496 C.3     1  UNL1        0.0901
     12 C           6.7947   41.1576   11.6327 C.3     1  UNL1        0.0359
     13 C           5.5713   41.6653   10.9403 C.ar    1  UNL1       -0.0217
     14 C           4.3046   41.5023   11.5163 C.ar    1  UNL1       -0.0043
     15 C           3.1688   41.9853   10.8589 C.ar    1  UNL1       -0.0003
     16 C           3.2965   42.6294    9.6243 C.ar    1  UNL1       -0.0000
     17 C           4.5594   42.7884    9.0457 C.ar    1  UNL1       -0.0003
     18 C           5.6950   42.3047    9.7022 C.ar    1  UNL1       -0.0043
     19 C          11.8167   40.3123   10.9014 C.1     1  UNL1        0.1019
     20 N          12.0317   39.7810   11.9069 N.1     1  UNL1       -0.1908
     21 C          12.6860   41.7483    6.1370 C.3     1  UNL1        0.0590
     22 C          13.8636   42.6519    6.2779 C.ar    1  UNL1       -0.0141
     23 C          13.8662   43.9063    5.6260 C.ar    1  UNL1       -0.0006
     24 C          14.9772   44.7631    5.7295 C.ar    1  UNL1        0.0399
     25 C          16.0589   44.3234    6.4886 C.ar    1  UNL1        0.1764
     26 C          16.0601   43.1170    7.1113 C.ar    1  UNL1        0.1761
     27 C          18.0539   44.1191    7.5697 C.3     1  UNL1        0.4294
     28 C          14.9799   42.2417    7.0323 C.ar    1  UNL1        0.0363
     29 O          17.2541   42.9475    7.7828 O.3     1  UNL1       -0.4346
     30 O          17.2520   44.9713    6.7393 O.3     1  UNL1       -0.4346
@<TRIPOS>BOND
     1     1     8    1
     2     1     6   ar
     3    11     7    1
     4    11    12    1
     5    12    13    1
     6    14    15   ar
     7    16    17   ar
     8    18    13   ar
     9     2     6   ar
    10     3     5   ar
    11     4     3    1
    12     5    19    1
    13    21     2    1
    14    21    22    1
    15    23    24   ar
    16    25    26   ar
    17    25    30    1
    18    26    29    1
    19    27    29    1
    20    27    30    1
    21    28    22   ar
    22     8     7   am
    23     7     9    2
    24    13    14   ar
    25    15    16   ar
    26    17    18   ar
    27     2     3   ar
    28     5     1   ar
    29    22    23   ar
    30    24    25   ar
    31    26    28   ar
    32    19    20    3
    33     8    10    1
@<TRIPOS>MOLECULE
MolPort-003-020-505 4087322 CSSS03437186032 LN01391649 MCULE-7357282413 PubChem-5098654 ZINC000004087322
 30 33 0 0 0
SMALL
GASTEIGER

@<TRIPOS>ATOM
      1 C           9.8139   40.9704    9.6361 C.ar    1  UNL1        0.0898
      2 C          12.0913   40.3892    8.7994 C.ar    1  UNL1        0.0096
      3 C          12.0330   40.5000   10.1862 C.ar    1  UNL1       -0.0081
      4 C          13.2104   40.2589   11.0733 C.3     1  UNL1        0.0320
      5 C          10.7498   40.8197   10.6639 C.ar    1  UNL1        0.0843
      6 S          10.5575   40.6568    8.1632 S.2     1  UNL1       -0.0759
      7 C           7.7982   42.1447   10.6460 C.2     1  UNL1        0.2268
      8 N           8.4051   41.1883    9.7733 N.am    1  UNL1       -0.2784
      9 O           8.4548   43.1252   11.0871 O.2     1  UNL1       -0.2747
     10 H           7.8059   40.6348    9.2220 H       1  UNL1        0.1553
     11 C           6.3668   41.9817   11.0291 C.3     1  UNL1        0.0901
     12 C           5.5243   41.5917    9.8194 C.3     1  UNL1        0.0359
     13 C           5.1396   42.7849    9.0058 C.ar    1  UNL1       -0.0217
     14 C           6.0420   43.3501    8.0953 C.ar    1  UNL1       -0.0043
     15 C           5.6674   44.4645    7.3381 C.ar    1  UNL1       -0.0003
     16 C           4.3921   45.0173    7.4912 C.ar    1  UNL1       -0.0000
     17 C           3.4921   44.4575    8.4031 C.ar    1  UNL1       -0.0003
     18 C           3.8667   43.3440    9.1610 C.ar    1  UNL1       -0.0043
     19 C          10.4288   40.8660   12.0689 C.1     1  UNL1        0.1019
     20 N          10.1682   40.9019   13.1961 N.1     1  UNL1       -0.1908
     21 C          13.2865   39.9881    7.9971 C.3     1  UNL1        0.0590
     22 C          14.1621   41.1668    7.7390 C.ar    1  UNL1       -0.0141
     23 C          13.7558   42.1512    6.8092 C.ar    1  UNL1       -0.0006
     24 C          14.5785   43.2594    6.5364 C.ar    1  UNL1        0.0399
     25 C          15.7944   43.3382    7.2110 C.ar    1  UNL1        0.1764
     26 C          16.1884   42.3912    8.1005 C.ar    1  UNL1        0.1761
     27 C          17.8389   43.9584    8.0023 C.3     1  UNL1        0.4294
     28 C          15.4023   41.2806    8.3968 C.ar    1  UNL1        0.0363
     29 O          17.4274   42.7254    8.6090 O.3     1  UNL1       -0.4346
     30 O          16.7664   44.3142    7.1179 O.3     1  UNL1       -0.4346
@<TRIPOS>BOND
     1     1     8    1
     2     1     6   ar
     3    11     7    1
     4    11    12    1
     5    12    13    1
     6    14    15   ar
     7    16    17   ar
     8    18    13   ar
     9     2     6   ar
    10     3     5   ar
    11     4     3    1
    12     5    19    1
    13    21     2    1
    14    21    22    1
    15    23    24   ar
    16    25    26   ar
    17    25    30    1
    18    26    29    1
    19    27    29    1
    20    27    30    1
    21    28    22   ar
    22     8     7   am
    23     7     9    2
    24    13    14   ar
    25    15    16   ar
    26    17    18   ar
    27     2     3   ar
    28     5     1   ar
    29    22    23   ar
    30    24    25   ar
    31    26    28   ar
    32    19    20    3
    33     8    10    1
@<TRIPOS>MOLECULE
MolPort-003-020-505 4087322 CSSS03437186032 LN01391649 MCULE-7357282413 PubChem-5098654 ZINC000004087322
 30 33 0 0 0
SMALL
GASTEIGER

@<TRIPOS>ATOM
      1 C          10.7185   40.2036    9.9353 C.ar    1  UNL1        0.0898
      2 C          13.1720   39.8134    9.7057 C.ar    1  UNL1        0.0096
      3 C          12.4066   38.9160    8.9656 C.ar    1  UNL1       -0.0081
      4 C          13.0044   37.8558    8.0996 C.3     1  UNL1        0.0320
      5 C          11.0231   39.1363    9.0851 C.ar    1  UNL1        0.0843
      6 S          12.1468   40.8956   10.4847 S.2     1  UNL1       -0.0759
      7 C           8.9027   41.0689   11.4897 C.2     1  UNL1        0.2268
      8 N           9.4255   40.7621   10.1946 N.am    1  UNL1       -0.2784
      9 O           9.6702   41.2222   12.4768 O.2     1  UNL1       -0.2747
     10 H           8.8499   40.9501    9.4183 H       1  UNL1        0.1553
     11 C           7.4303   41.2182   11.6685 C.3     1  UNL1        0.0901
     12 C           6.8333   42.0673   10.5514 C.3     1  UNL1        0.0359
     13 C           5.3635   41.8375   10.4076 C.ar    1  UNL1       -0.0217
     14 C           4.4800   42.1991   11.4330 C.ar    1  UNL1       -0.0043
     15 C           3.1068   41.9814   11.2835 C.ar    1  UNL1       -0.0003
     16 C           2.6145   41.4000   10.1109 C.ar    1  UNL1       -0.0000
     17 C           3.4955   41.0339    9.0887 C.ar    1  UNL1       -0.0003
     18 C           4.8685   41.2505    9.2383 C.ar    1  UNL1       -0.0043
     19 C          10.0468   38.4063    8.3148 C.1     1  UNL1        0.1019
     20 N           9.2631   37.8180    7.6988 N.1     1  UNL1       -0.1908
     21 C          14.6642   39.8895    9.7278 C.3     1  UNL1        0.0590
     22 C          15.1441   40.9962    8.8516 C.ar    1  UNL1       -0.0141
     23 C          14.2954   41.5111    7.8450 C.ar    1  UNL1       -0.0006
     24 C          14.7384   42.5404    6.9944 C.ar    1  UNL1        0.0399
     25 C          16.0328   43.0181    7.1843 C.ar    1  UNL1        0.1764
     26 C          16.8509   42.5214    8.1472 C.ar    1  UNL1        0.1761
     27 C          18.0077   44.1456    7.0457 C.3     1  UNL1        0.4294
     28 C          16.4487   41.5031    9.0078 C.ar    1  UNL1        0.0363
     29 O          18.0648   43.1767    8.1020 O.3     1  UNL1       -0.4346
     30 O          16.6927   44.0107    6.4876 O.3     1  UNL1       -0.4346
@<TRIPOS>BOND
     1     1     8    1
     2     1     6   ar
     3    11     7    1
     4    11    12    1
     5    12    13    1
     6    14    15   ar
     7    16    17   ar
     8    18    13   ar
     9     2     6   ar
    10     3     5   ar
    11     4     3    1
    12     5    19    1
    13    21     2    1
    14    21    22    1
    15    23    24   ar
    16    25    26   ar
    17    25    30    1
    18    26    29    1
    19    27    29    1
    20    27    30    1
    21    28    22   ar
    22     8     7   am
    23     7     9    2
    24    13    14   ar
    25    15    16   ar
    26    17    18   ar
    27     2     3   ar
    28     5     1   ar
    29    22    23   ar
    30    24    25   ar
    31    26    28   ar
    32    19    20    3
    33     8    10    1
@<TRIPOS>MOLECULE
MolPort-003-020-505 4087322 CSSS03437186032 LN01391649 MCULE-7357282413 PubChem-5098654 ZINC000004087322
 30 33 0 0 0
SMALL
GASTEIGER

@<TRIPOS>ATOM
      1 C          10.2101   41.3792    6.7197 C.ar    1  UNL1        0.0898
      2 C           8.3225   41.1822    8.3391 C.ar    1  UNL1        0.0096
      3 C           8.0538   40.5774    7.1139 C.ar    1  UNL1       -0.0081
      4 C           6.7778   39.8575    6.8229 C.3     1  UNL1        0.0320
      5 C           9.1175   40.6785    6.2000 C.ar    1  UNL1        0.0843
      6 S           9.8798   41.8168    8.3071 S.2     1  UNL1       -0.0759
      7 C          12.5212   42.4304    6.5925 C.2     1  UNL1        0.2268
      8 N          11.4879   41.5722    6.1022 N.am    1  UNL1       -0.2784
      9 O          12.5384   42.7981    7.7973 O.2     1  UNL1       -0.2747
     10 H          11.6695   41.0735    5.2729 H       1  UNL1        0.1553
     11 C          13.5959   42.8862    5.6654 C.3     1  UNL1        0.0901
     12 C          14.3442   44.0792    6.2502 C.3     1  UNL1        0.0359
     13 C          15.6255   43.6644    6.8983 C.ar    1  UNL1       -0.0217
     14 C          16.7781   44.4506    6.7708 C.ar    1  UNL1       -0.0043
     15 C          17.9693   44.0520    7.3854 C.ar    1  UNL1       -0.0003
     16 C          18.0114   42.8667    8.1261 C.ar    1  UNL1       -0.0000
     17 C          16.8632   42.0784    8.2502 C.ar    1  UNL1       -0.0003
     18 C          15.6725   42.4761    7.6349 C.ar    1  UNL1       -0.0043
     19 C           9.1084   40.0230    4.9157 C.1     1  UNL1        0.1019
     20 N           9.0987   39.4947    3.8858 N.1     1  UNL1       -0.1908
     21 C           7.4294   41.1803    9.5371 C.3     1  UNL1        0.0590
     22 C           6.1975   41.9771    9.2718 C.ar    1  UNL1       -0.0141
     23 C           4.9372   41.4696    9.6625 C.ar    1  UNL1       -0.0006
     24 C           3.7616   42.1970    9.4012 C.ar    1  UNL1        0.0399
     25 C           3.8947   43.4191    8.7464 C.ar    1  UNL1        0.1764
     26 C           5.1038   43.9056    8.3662 C.ar    1  UNL1        0.1761
     27 C           3.5300   45.4236    7.7271 C.3     1  UNL1        0.4294
     28 C           6.2890   43.2152    8.6068 C.ar    1  UNL1        0.0363
     29 O           4.9329   45.1244    7.7413 O.3     1  UNL1       -0.4346
     30 O           2.9050   44.3091    8.3798 O.3     1  UNL1       -0.4346
@<TRIPOS>BOND
     1     1     8    1
     2     1     6   ar
     3    11     7    1
     4    11    12    1
     5    12    13    1
     6    14    15   ar
     7    16    17   ar
     8    18    13   ar
     9     2     6   ar
    10     3     5   ar
    11     4     3    1
    12     5    19    1
    13    21     2    1
    14    21    22    1
    15    23    24   ar
    16    25    26   ar
    17    25    30    1
    18    26    29    1
    19    27    29    1
    20    27    30    1
    21    28    22   ar
    22     8     7   am
    23     7     9    2
    24    13    14   ar
    25    15    16   ar
    26    17    18   ar
    27     2     3   ar
    28     5     1   ar
    29    22    23   ar
    30    24    25   ar
    31    26    28   ar
    32    19    20    3
    33     8    10    1
@<TRIPOS>MOLECULE
MolPort-003-020-505 4087322 CSSS03437186032 LN01391649 MCULE-7357282413 PubChem-5098654 ZINC000004087322
 30 33 0 0 0
SMALL
GASTEIGER

@<TRIPOS>ATOM
      1 C           9.5557   42.0884    7.6848 C.ar    1  UNL1        0.0898
      2 C          11.7635   40.9709    8.0037 C.ar    1  UNL1        0.0096
      3 C          10.9524   40.3193    7.0783 C.ar    1  UNL1       -0.0081
      4 C          11.3837   39.0984    6.3335 C.3     1  UNL1        0.0320
      5 C           9.7097   40.9494    6.8887 C.ar    1  UNL1        0.0843
      6 S          10.9625   42.3382    8.5676 S.2     1  UNL1       -0.0759
      7 C           8.0136   43.7852    8.7823 C.2     1  UNL1        0.2268
      8 N           8.4670   43.0186    7.6636 N.am    1  UNL1       -0.2784
      9 O           8.7627   43.9849    9.7753 O.2     1  UNL1       -0.2747
     10 H           7.9922   43.1400    6.8097 H       1  UNL1        0.1553
     11 C           6.6393   44.3625    8.7657 C.3     1  UNL1        0.0901
     12 C           5.6303   43.3420    8.2501 C.3     1  UNL1        0.0359
     13 C           4.9715   42.6020    9.3691 C.ar    1  UNL1       -0.0217
     14 C           5.7308   41.8402   10.2669 C.ar    1  UNL1       -0.0043
     15 C           5.1015   41.1556   11.3113 C.ar    1  UNL1       -0.0003
     16 C           3.7129   41.2290   11.4589 C.ar    1  UNL1       -0.0000
     17 C           2.9531   41.9847   10.5607 C.ar    1  UNL1       -0.0003
     18 C           3.5819   42.6683    9.5158 C.ar    1  UNL1       -0.0043
     19 C           8.7605   40.5197    5.8919 C.1     1  UNL1        0.1019
     20 N           8.0004   40.1761    5.0894 N.1     1  UNL1       -0.1908
     21 C          13.1637   40.5957    8.3662 C.3     1  UNL1        0.0590
     22 C          14.1295   41.5923    7.8214 C.ar    1  UNL1       -0.0141
     23 C          13.7611   42.3934    6.7163 C.ar    1  UNL1       -0.0006
     24 C          14.6666   43.3239    6.1748 C.ar    1  UNL1        0.0399
     25 C          15.9244   43.4150    6.7659 C.ar    1  UNL1        0.1764
     26 C          16.2816   42.6430    7.8241 C.ar    1  UNL1        0.1761
     27 C          18.0641   43.9685    7.3189 C.3     1  UNL1        0.4294
     28 C          15.4136   41.7112    8.3875 C.ar    1  UNL1        0.0363
     29 O          17.5762   42.9441    8.1965 O.3     1  UNL1       -0.4346
     30 O          16.9771   44.2396    6.4224 O.3     1  UNL1       -0.4346
@<TRIPOS>BOND
     1     1     8    1
     2     1     6   ar
     3    11     7    1
     4    11    12    1
     5    12    13    1
     6    14    15   ar
     7    16    17   ar
     8    18    13   ar
     9     2     6   ar
    10     3     5   ar
    11     4     3    1
    12     5    19    1
    13    21     2    1
    14    21    22    1
    15    23    24   ar
    16    25    26   ar
    17    25    30    1
    18    26    29    1
    19    27    29    1
    20    27    30    1
    21    28    22   ar
    22     8     7   am
    23     7     9    2
    24    13    14   ar
    25    15    16   ar
    26    17    18   ar
    27     2     3   ar
    28     5     1   ar
    29    22    23   ar
    30    24    25   ar
    31    26    28   ar
    32    19    20    3
    33     8    10    1
