@<TRIPOS>MOLECULE
MolPort-020-186-520 72122310 CSSS00159808843 MCULE-9656903396 PubChem-56882414 ZINC000072122310 ZINC72122310
 26 28 0 0 0
SMALL
GASTEIGER

@<TRIPOS>ATOM
      1 C          14.1336   41.6866    7.8070 C.ar    1  UNL1        0.1477
      2 C          15.9997   42.6290    7.3427 C.ar    1  UNL1        0.1195
      3 C          16.1953   41.7968    8.4290 C.ar    1  UNL1        0.1021
      4 N          14.7085   42.5599    6.9569 N.ar    1  UNL1       -0.2248
      5 N          15.0181   41.2145    8.7149 N.ar    1  UNL1       -0.2892
      6 C          10.0319   40.4485    7.4707 C.ar    1  UNL1        0.0503
      7 C          11.0714   39.6056    7.0517 C.ar    1  UNL1        0.0148
      8 C          12.4022   40.0180    7.1598 C.ar    1  UNL1        0.0043
      9 C          12.7153   41.2806    7.6813 C.ar    1  UNL1        0.0346
     10 C          11.6739   42.1143    8.1119 C.ar    1  UNL1        0.0043
     11 C          10.3432   41.7028    8.0036 C.ar    1  UNL1        0.0148
     12 C           6.4100   39.6837    6.2950 C.3     1  UNL1        0.0949
     13 C           7.8235   40.1335    6.2089 C.2     1  UNL1        0.2266
     14 O           8.2665   40.5699    5.1140 O.2     1  UNL1       -0.2748
     15 N           8.6543   40.0618    7.3744 N.am    1  UNL1       -0.2839
     16 H           8.2361   39.7108    8.1936 H       1  UNL1        0.1549
     17 C          14.7968   40.3323    9.8245 C.ar    1  UNL1        0.0615
     18 C          15.8567   39.5996   10.4026 C.ar    1  UNL1       -0.0035
     19 C          15.5989   38.7310   11.4690 C.ar    1  UNL1       -0.0028
     20 C          14.3002   38.5845   11.9621 C.ar    1  UNL1       -0.0002
     21 C          13.2486   39.2983   11.3840 C.ar    1  UNL1        0.0015
     22 C          13.4954   40.1641   10.3161 C.ar    1  UNL1        0.0172
     23 C          17.2498   39.6879    9.8706 C.3     1  UNL1        0.0595
     24 C          18.0719   38.5099   10.3567 C.3     1  UNL1        0.1419
     25 O          18.4888   37.7529    9.2635 O.3     1  UNL1       -0.3816
     26 H          17.7130   37.4287    8.7799 H       1  UNL1        0.2105
@<TRIPOS>BOND
     1    12    13    1
     2    13    15   am
     3     7     8   ar
     4     9    10   ar
     5     9     1    1
     6    11     6   ar
     7     2     4   ar
     8     3     5   ar
     9    18    19   ar
    10    23    18    1
    11    23    24    1
    12    24    25    1
    13    20    21   ar
    14    22    17   ar
    15    15     6    1
    16     5    17    1
    17     5     1   ar
    18    13    14    2
    19     6     7   ar
    20     8     9   ar
    21    10    11   ar
    22     1     4   ar
    23     2     3   ar
    24    17    18   ar
    25    19    20   ar
    26    21    22   ar
    27    25    26    1
    28    15    16    1
@<TRIPOS>MOLECULE
MolPort-020-186-520 72122310 CSSS00159808843 MCULE-9656903396 PubChem-56882414 ZINC000072122310 ZINC72122310
 26 28 0 0 0
SMALL
GASTEIGER

@<TRIPOS>ATOM
      1 C          10.6841   40.7315    6.5965 C.ar    1  UNL1        0.1477
      2 C           9.0142   39.8677    5.5710 C.ar    1  UNL1        0.1195
      3 C           8.6253   40.1502    6.8671 C.ar    1  UNL1        0.1021
      4 N          10.3034   40.2302    5.4051 N.ar    1  UNL1       -0.2248
      5 N           9.6810   40.6870    7.5028 N.ar    1  UNL1       -0.2892
      6 C          14.6211   42.3346    7.2288 C.ar    1  UNL1        0.0503
      7 C          14.1954   41.1885    7.9156 C.ar    1  UNL1        0.0148
      8 C          12.9118   40.6766    7.7080 C.ar    1  UNL1        0.0043
      9 C          12.0311   41.3050    6.8170 C.ar    1  UNL1        0.0346
     10 C          12.4656   42.4423    6.1221 C.ar    1  UNL1        0.0043
     11 C          13.7487   42.9548    6.3296 C.ar    1  UNL1        0.0148
     12 C          18.0075   44.1997    6.8558 C.3     1  UNL1        0.0949
     13 C          16.6543   43.7080    6.4885 C.2     1  UNL1        0.2266
     14 O          16.1682   44.0177    5.3689 O.2     1  UNL1       -0.2748
     15 N          15.9296   42.8907    7.4161 N.am    1  UNL1       -0.2839
     16 H          16.3763   42.6902    8.2702 H       1  UNL1        0.1549
     17 C           9.6943   41.0505    8.8906 C.ar    1  UNL1        0.0615
     18 C           9.0049   42.1912    9.3574 C.ar    1  UNL1       -0.0035
     19 C           9.0596   42.5278   10.7146 C.ar    1  UNL1       -0.0028
     20 C           9.7931   41.7431   11.6075 C.ar    1  UNL1       -0.0002
     21 C          10.4858   40.6220   11.1463 C.ar    1  UNL1        0.0015
     22 C          10.4410   40.2808    9.7925 C.ar    1  UNL1        0.0172
     23 C           8.2532   43.0858    8.4267 C.3     1  UNL1        0.0595
     24 C           8.0365   44.4438    9.0660 C.3     1  UNL1        0.1419
     25 O           6.6786   44.7561    9.0424 O.3     1  UNL1       -0.3816
     26 H           6.3676   44.7772    8.1238 H       1  UNL1        0.2105
@<TRIPOS>BOND
     1    12    13    1
     2    13    15   am
     3     7     8   ar
     4     9    10   ar
     5     9     1    1
     6    11     6   ar
     7     2     4   ar
     8     3     5   ar
     9    18    19   ar
    10    23    18    1
    11    23    24    1
    12    24    25    1
    13    20    21   ar
    14    22    17   ar
    15    15     6    1
    16     5    17    1
    17     5     1   ar
    18    13    14    2
    19     6     7   ar
    20     8     9   ar
    21    10    11   ar
    22     1     4   ar
    23     2     3   ar
    24    17    18   ar
    25    19    20   ar
    26    21    22   ar
    27    25    26    1
    28    15    16    1
@<TRIPOS>MOLECULE
MolPort-020-186-520 72122310 CSSS00159808843 MCULE-9656903396 PubChem-56882414 ZINC000072122310 ZINC72122310
 26 28 0 0 0
SMALL
GASTEIGER

@<TRIPOS>ATOM
      1 C          10.1469   40.2669    7.3961 C.ar    1  UNL1        0.1477
      2 C           8.5609   38.8683    7.0571 C.ar    1  UNL1        0.1195
      3 C           8.0318   39.9738    7.6965 C.ar    1  UNL1        0.1021
      4 N           9.8848   39.0533    6.8724 N.ar    1  UNL1       -0.2248
      5 N           9.0354   40.8425    7.9087 N.ar    1  UNL1       -0.2892
      6 C          14.0865   41.9765    7.2340 C.ar    1  UNL1        0.0503
      7 C          13.7372   41.0770    8.2515 C.ar    1  UNL1        0.0148
      8 C          12.4524   40.5295    8.2998 C.ar    1  UNL1        0.0043
      9 C          11.4946   40.8770    7.3375 C.ar    1  UNL1        0.0346
     10 C          11.8523   41.7658    6.3141 C.ar    1  UNL1        0.0043
     11 C          13.1365   42.3138    6.2655 C.ar    1  UNL1        0.0148
     12 C          17.1395   44.3041    6.6444 C.3     1  UNL1        0.0949
     13 C          15.7206   43.8632    6.6518 C.2     1  UNL1        0.2266
     14 O          14.8303   44.6413    6.2186 O.2     1  UNL1       -0.2748
     15 N          15.3937   42.5605    7.1517 N.am    1  UNL1       -0.2839
     16 H          16.1442   42.0094    7.4716 H       1  UNL1        0.1549
     17 C           8.8985   42.0852    8.6125 C.ar    1  UNL1        0.0615
     18 C           9.3491   42.2287    9.9432 C.ar    1  UNL1       -0.0035
     19 C           9.1778   43.4493   10.6058 C.ar    1  UNL1       -0.0028
     20 C           8.5627   44.5236    9.9587 C.ar    1  UNL1       -0.0002
     21 C           8.1051   44.3803    8.6474 C.ar    1  UNL1        0.0015
     22 C           8.2674   43.1643    7.9795 C.ar    1  UNL1        0.0172
     23 C           9.9637   41.0889   10.6879 C.3     1  UNL1        0.0595
     24 C           9.5885   41.1588   12.1557 C.3     1  UNL1        0.1419
     25 O           8.3162   40.6194   12.3352 O.3     1  UNL1       -0.3816
     26 H           7.6741   41.1246   11.8124 H       1  UNL1        0.2105
@<TRIPOS>BOND
     1    12    13    1
     2    13    15   am
     3     7     8   ar
     4     9    10   ar
     5     9     1    1
     6    11     6   ar
     7     2     4   ar
     8     3     5   ar
     9    18    19   ar
    10    23    18    1
    11    23    24    1
    12    24    25    1
    13    20    21   ar
    14    22    17   ar
    15    15     6    1
    16     5    17    1
    17     5     1   ar
    18    13    14    2
    19     6     7   ar
    20     8     9   ar
    21    10    11   ar
    22     1     4   ar
    23     2     3   ar
    24    17    18   ar
    25    19    20   ar
    26    21    22   ar
    27    25    26    1
    28    15    16    1
@<TRIPOS>MOLECULE
MolPort-020-186-520 72122310 CSSS00159808843 MCULE-9656903396 PubChem-56882414 ZINC000072122310 ZINC72122310
 26 28 0 0 0
SMALL
GASTEIGER

@<TRIPOS>ATOM
      1 C          10.4878   40.2303    7.3990 C.ar    1  UNL1        0.1477
      2 C           8.8647   38.9081    6.9480 C.ar    1  UNL1        0.1195
      3 C           8.3541   40.0061    7.6149 C.ar    1  UNL1        0.1021
      4 N          10.2001   39.0499    6.8163 N.ar    1  UNL1       -0.2248
      5 N           9.3807   40.8266    7.8972 N.ar    1  UNL1       -0.2892
      6 C          14.4397   41.9190    7.4291 C.ar    1  UNL1        0.0503
      7 C          13.5097   42.2894    6.4471 C.ar    1  UNL1        0.0148
      8 C          12.2284   41.7318    6.4415 C.ar    1  UNL1        0.0043
      9 C          11.8582   40.7906    7.4117 C.ar    1  UNL1        0.0346
     10 C          12.7863   40.4336    8.3999 C.ar    1  UNL1        0.0043
     11 C          14.0676   40.9905    8.4057 C.ar    1  UNL1        0.0148
     12 C          17.5886   44.1762    7.1550 C.3     1  UNL1        0.0949
     13 C          16.1624   43.7759    7.0385 C.2     1  UNL1        0.2266
     14 O          15.3290   44.5925    6.5651 O.2     1  UNL1       -0.2748
     15 N          15.7641   42.4677    7.4672 N.am    1  UNL1       -0.2839
     16 H          16.4730   41.8855    7.8247 H       1  UNL1        0.1549
     17 C           9.2645   42.0440    8.6473 C.ar    1  UNL1        0.0615
     18 C           8.1125   42.8557    8.5558 C.ar    1  UNL1       -0.0035
     19 C           8.0444   44.0483    9.2847 C.ar    1  UNL1       -0.0028
     20 C           9.1095   44.4395   10.0994 C.ar    1  UNL1       -0.0002
     21 C          10.2547   43.6450   10.1818 C.ar    1  UNL1        0.0015
     22 C          10.3338   42.4553    9.4543 C.ar    1  UNL1        0.0172
     23 C           6.9746   42.4997    7.6558 C.3     1  UNL1        0.0595
     24 C           7.0135   43.3498    6.4006 C.3     1  UNL1        0.1419
     25 O           6.4267   42.6498    5.3481 O.3     1  UNL1       -0.3816
     26 H           6.9147   41.8255    5.1962 H       1  UNL1        0.2105
@<TRIPOS>BOND
     1    12    13    1
     2    13    15   am
     3     7     8   ar
     4     9    10   ar
     5     9     1    1
     6    11     6   ar
     7     2     4   ar
     8     3     5   ar
     9    18    19   ar
    10    23    18    1
    11    23    24    1
    12    24    25    1
    13    20    21   ar
    14    22    17   ar
    15    15     6    1
    16     5    17    1
    17     5     1   ar
    18    13    14    2
    19     6     7   ar
    20     8     9   ar
    21    10    11   ar
    22     1     4   ar
    23     2     3   ar
    24    17    18   ar
    25    19    20   ar
    26    21    22   ar
    27    25    26    1
    28    15    16    1
@<TRIPOS>MOLECULE
MolPort-020-186-520 72122310 CSSS00159808843 MCULE-9656903396 PubChem-56882414 ZINC000072122310 ZINC72122310
 26 28 0 0 0
SMALL
GASTEIGER

@<TRIPOS>ATOM
      1 C          12.0909   39.0066    8.6149 C.ar    1  UNL1        0.1477
      2 C          10.3794   37.7478    8.8845 C.ar    1  UNL1        0.1195
      3 C          11.3502   37.3549    9.7868 C.ar    1  UNL1        0.1021
      4 N          10.8462   38.7798    8.1510 N.ar    1  UNL1       -0.2248
      5 N          12.4207   38.1474    9.6062 N.ar    1  UNL1       -0.2892
      6 C          14.4793   42.2644    7.1483 C.ar    1  UNL1        0.0503
      7 C          13.2125   42.0040    6.6062 C.ar    1  UNL1        0.0148
      8 C          12.4444   40.9396    7.0854 C.ar    1  UNL1        0.0043
      9 C          12.9320   40.1145    8.1080 C.ar    1  UNL1        0.0346
     10 C          14.1929   40.3869    8.6567 C.ar    1  UNL1        0.0043
     11 C          14.9615   41.4508    8.1777 C.ar    1  UNL1        0.0148
     12 C          15.8644   45.5011    5.5078 C.3     1  UNL1        0.0949
     13 C          14.8707   44.4687    5.9007 C.2     1  UNL1        0.2266
     14 O          13.6712   44.5980    5.5400 O.2     1  UNL1       -0.2748
     15 N          15.2977   43.3460    6.6823 N.am    1  UNL1       -0.2839
     16 H          16.2514   43.3139    6.9243 H       1  UNL1        0.1549
     17 C          13.6631   38.0068   10.3099 C.ar    1  UNL1        0.0615
     18 C          14.6745   37.1366    9.8472 C.ar    1  UNL1       -0.0035
     19 C          15.8642   37.0078   10.5727 C.ar    1  UNL1       -0.0028
     20 C          16.0547   37.7336   11.7508 C.ar    1  UNL1       -0.0002
     21 C          15.0512   38.5851   12.2170 C.ar    1  UNL1        0.0015
     22 C          13.8583   38.7166   11.5023 C.ar    1  UNL1        0.0172
     23 C          14.4887   36.3035    8.6213 C.3     1  UNL1        0.0595
     24 C          15.7134   35.4414    8.3830 C.3     1  UNL1        0.1419
     25 O          15.4774   34.1564    8.8680 O.3     1  UNL1       -0.3816
     26 H          15.2914   34.1989    9.8190 H       1  UNL1        0.2105
@<TRIPOS>BOND
     1    12    13    1
     2    13    15   am
     3     7     8   ar
     4     9    10   ar
     5     9     1    1
     6    11     6   ar
     7     2     4   ar
     8     3     5   ar
     9    18    19   ar
    10    23    18    1
    11    23    24    1
    12    24    25    1
    13    20    21   ar
    14    22    17   ar
    15    15     6    1
    16     5    17    1
    17     5     1   ar
    18    13    14    2
    19     6     7   ar
    20     8     9   ar
    21    10    11   ar
    22     1     4   ar
    23     2     3   ar
    24    17    18   ar
    25    19    20   ar
    26    21    22   ar
    27    25    26    1
    28    15    16    1
@<TRIPOS>MOLECULE
MolPort-020-186-520 72122310 CSSS00159808843 MCULE-9656903396 PubChem-56882414 ZINC000072122310 ZINC72122310
 26 28 0 0 0
SMALL
GASTEIGER

@<TRIPOS>ATOM
      1 C           6.5214   42.9798    7.4917 C.ar    1  UNL1        0.1477
      2 C           5.3250   44.7484    7.6565 C.ar    1  UNL1        0.1195
      3 C           5.8114   44.4381    8.9127 C.ar    1  UNL1        0.1021
      4 N           5.7688   43.8332    6.7697 N.ar    1  UNL1       -0.2248
      5 N           6.5563   43.3250    8.7991 N.ar    1  UNL1       -0.2892
      6 C           8.5847   39.6922    5.6467 C.ar    1  UNL1        0.0503
      7 C           7.2631   39.5488    6.0932 C.ar    1  UNL1        0.0148
      8 C           6.6012   40.6214    6.6967 C.ar    1  UNL1        0.0043
      9 C           7.2506   41.8512    6.8700 C.ar    1  UNL1        0.0346
     10 C           8.5668   41.9944    6.4096 C.ar    1  UNL1        0.0043
     11 C           9.2294   40.9223    5.8066 C.ar    1  UNL1        0.0148
     12 C          10.2480   37.2236    3.1517 C.3     1  UNL1        0.0949
     13 C           9.4716   38.4015    3.6179 C.2     1  UNL1        0.2266
     14 O           8.9798   39.1914    2.7695 O.2     1  UNL1       -0.2748
     15 N           9.2977   38.6148    5.0243 N.am    1  UNL1       -0.2839
     16 H           9.7105   37.9533    5.6254 H       1  UNL1        0.1549
     17 C           7.1771   42.6475    9.9008 C.ar    1  UNL1        0.0615
     18 C           6.4732   41.6913   10.6654 C.ar    1  UNL1       -0.0035
     19 C           7.1043   41.0675   11.7475 C.ar    1  UNL1       -0.0028
     20 C           8.4240   41.3870   12.0751 C.ar    1  UNL1       -0.0002
     21 C           9.1179   42.3412   11.3284 C.ar    1  UNL1        0.0015
     22 C           8.4948   42.9726   10.2494 C.ar    1  UNL1        0.0172
     23 C           5.0446   41.3604   10.3807 C.3     1  UNL1        0.0595
     24 C           4.3394   40.9420   11.6564 C.3     1  UNL1        0.1419
     25 O           3.9941   39.5944   11.5748 O.3     1  UNL1       -0.3816
     26 H           3.4029   39.4573   10.8181 H       1  UNL1        0.2105
@<TRIPOS>BOND
     1    12    13    1
     2    13    15   am
     3     7     8   ar
     4     9    10   ar
     5     9     1    1
     6    11     6   ar
     7     2     4   ar
     8     3     5   ar
     9    18    19   ar
    10    23    18    1
    11    23    24    1
    12    24    25    1
    13    20    21   ar
    14    22    17   ar
    15    15     6    1
    16     5    17    1
    17     5     1   ar
    18    13    14    2
    19     6     7   ar
    20     8     9   ar
    21    10    11   ar
    22     1     4   ar
    23     2     3   ar
    24    17    18   ar
    25    19    20   ar
    26    21    22   ar
    27    25    26    1
    28    15    16    1
@<TRIPOS>MOLECULE
MolPort-020-186-520 72122310 CSSS00159808843 MCULE-9656903396 PubChem-56882414 ZINC000072122310 ZINC72122310
 26 28 0 0 0
SMALL
GASTEIGER

@<TRIPOS>ATOM
      1 C          10.8954   41.4671    9.8237 C.ar    1  UNL1        0.1477
      2 C           9.6842   41.3500   11.5860 C.ar    1  UNL1        0.1195
      3 C           9.0165   40.7073   10.5603 C.ar    1  UNL1        0.1021
      4 N          10.8583   41.8264   11.1219 N.ar    1  UNL1       -0.2248
      5 N           9.7824   40.7906    9.4587 N.ar    1  UNL1       -0.2892
      6 C          14.2840   42.3542    7.3337 C.ar    1  UNL1        0.0503
      7 C          13.1200   43.1331    7.2638 C.ar    1  UNL1        0.0148
      8 C          12.0207   42.8348    8.0733 C.ar    1  UNL1        0.0043
      9 C          12.0640   41.7502    8.9599 C.ar    1  UNL1        0.0346
     10 C          13.2346   40.9827    9.0367 C.ar    1  UNL1        0.0043
     11 C          14.3337   41.2802    8.2272 C.ar    1  UNL1        0.0148
     12 C          17.5686   43.7548    5.8056 C.3     1  UNL1        0.0949
     13 C          16.4431   43.6125    6.7651 C.2     1  UNL1        0.2266
     14 O          16.3973   44.3597    7.7777 O.2     1  UNL1       -0.2748
     15 N          15.4316   42.6278    6.5184 N.am    1  UNL1       -0.2839
     16 H          15.5353   42.0827    5.7052 H       1  UNL1        0.1549
     17 C           9.4004   40.3012    8.1653 C.ar    1  UNL1        0.0615
     18 C           8.6191   41.0828    7.2860 C.ar    1  UNL1       -0.0035
     19 C           8.2462   40.5631    6.0414 C.ar    1  UNL1       -0.0028
     20 C           8.6411   39.2768    5.6663 C.ar    1  UNL1       -0.0002
     21 C           9.4030   38.4975    6.5391 C.ar    1  UNL1        0.0015
     22 C           9.7761   39.0058    7.7854 C.ar    1  UNL1        0.0172
     23 C           8.1322   42.4416    7.6705 C.3     1  UNL1        0.0595
     24 C           7.0605   42.9073    6.7038 C.3     1  UNL1        0.1419
     25 O           7.6533   43.6165    5.6609 O.3     1  UNL1       -0.3816
     26 H           8.1228   44.3860    6.0191 H       1  UNL1        0.2105
@<TRIPOS>BOND
     1    12    13    1
     2    13    15   am
     3     7     8   ar
     4     9    10   ar
     5     9     1    1
     6    11     6   ar
     7     2     4   ar
     8     3     5   ar
     9    18    19   ar
    10    23    18    1
    11    23    24    1
    12    24    25    1
    13    20    21   ar
    14    22    17   ar
    15    15     6    1
    16     5    17    1
    17     5     1   ar
    18    13    14    2
    19     6     7   ar
    20     8     9   ar
    21    10    11   ar
    22     1     4   ar
    23     2     3   ar
    24    17    18   ar
    25    19    20   ar
    26    21    22   ar
    27    25    26    1
    28    15    16    1
@<TRIPOS>MOLECULE
MolPort-020-186-520 72122310 CSSS00159808843 MCULE-9656903396 PubChem-56882414 ZINC000072122310 ZINC72122310
 26 28 0 0 0
SMALL
GASTEIGER

@<TRIPOS>ATOM
      1 C          12.2409   40.6953   10.1831 C.ar    1  UNL1        0.1477
      2 C          13.6477   39.4040   11.1524 C.ar    1  UNL1        0.1195
      3 C          14.2724   39.9824   10.0633 C.ar    1  UNL1        0.1021
      4 N          12.3762   39.8500   11.2237 N.ar    1  UNL1       -0.2248
      5 N          13.3802   40.7864    9.4598 N.ar    1  UNL1       -0.2892
      6 C           8.5838   42.8495    9.5089 C.ar    1  UNL1        0.0503
      7 C           8.6831   41.4881    9.1875 C.ar    1  UNL1        0.0148
      8 C           9.8775   40.7963    9.4052 C.ar    1  UNL1        0.0043
      9 C          10.9932   41.4544    9.9404 C.ar    1  UNL1        0.0346
     10 C          10.8852   42.8119   10.2733 C.ar    1  UNL1        0.0043
     11 C           9.6914   43.5042   10.0554 C.ar    1  UNL1        0.0148
     12 C           5.5069   44.6879    8.0128 C.3     1  UNL1        0.0949
     13 C           6.7675   43.9019    8.0385 C.2     1  UNL1        0.2266
     14 O           7.2792   43.5206    6.9529 O.2     1  UNL1       -0.2748
     15 N           7.3761   43.5939    9.2988 N.am    1  UNL1       -0.2839
     16 H           6.9178   43.9278   10.1036 H       1  UNL1        0.1549
     17 C          13.6308   41.5122    8.2478 C.ar    1  UNL1        0.0615
     18 C          14.9331   41.9340    7.9006 C.ar    1  UNL1       -0.0035
     19 C          15.1358   42.6602    6.7217 C.ar    1  UNL1       -0.0028
     20 C          14.0577   42.9706    5.8895 C.ar    1  UNL1       -0.0002
     21 C          12.7675   42.5655    6.2370 C.ar    1  UNL1        0.0015
     22 C          12.5546   41.8443    7.4141 C.ar    1  UNL1        0.0172
     23 C          16.1040   41.6684    8.7893 C.3     1  UNL1        0.0595
     24 C          17.3274   42.4047    8.2782 C.3     1  UNL1        0.1419
     25 O          18.3642   41.4960    8.0751 O.3     1  UNL1       -0.3816
     26 H          18.5775   41.0562    8.9130 H       1  UNL1        0.2105
@<TRIPOS>BOND
     1    12    13    1
     2    13    15   am
     3     7     8   ar
     4     9    10   ar
     5     9     1    1
     6    11     6   ar
     7     2     4   ar
     8     3     5   ar
     9    18    19   ar
    10    23    18    1
    11    23    24    1
    12    24    25    1
    13    20    21   ar
    14    22    17   ar
    15    15     6    1
    16     5    17    1
    17     5     1   ar
    18    13    14    2
    19     6     7   ar
    20     8     9   ar
    21    10    11   ar
    22     1     4   ar
    23     2     3   ar
    24    17    18   ar
    25    19    20   ar
    26    21    22   ar
    27    25    26    1
    28    15    16    1
@<TRIPOS>MOLECULE
MolPort-020-186-520 72122310 CSSS00159808843 MCULE-9656903396 PubChem-56882414 ZINC000072122310 ZINC72122310
 26 28 0 0 0
SMALL
GASTEIGER

@<TRIPOS>ATOM
      1 C           9.1647   39.8584    5.0921 C.ar    1  UNL1        0.1477
      2 C           9.9116   38.6655    3.4780 C.ar    1  UNL1        0.1195
      3 C          10.9776   39.0133    4.2865 C.ar    1  UNL1        0.1021
      4 N           8.7789   39.1973    3.9831 N.ar    1  UNL1       -0.2248
      5 N          10.4991   39.7651    5.2928 N.ar    1  UNL1       -0.2892
      6 C           6.3478   41.8805    7.6310 C.ar    1  UNL1        0.0503
      7 C           7.4261   42.5737    7.0625 C.ar    1  UNL1        0.0148
      8 C           8.3404   41.9075    6.2422 C.ar    1  UNL1        0.0043
      9 C           8.1964   40.5378    5.9825 C.ar    1  UNL1        0.0346
     10 C           7.1092   39.8518    6.5415 C.ar    1  UNL1        0.0043
     11 C           6.1950   40.5172    7.3621 C.ar    1  UNL1        0.0148
     12 C           3.6479   42.7471   10.2853 C.3     1  UNL1        0.0949
     13 C           4.5931   41.9130    9.4987 C.2     1  UNL1        0.2266
     14 O           4.6771   40.6802    9.7414 O.2     1  UNL1       -0.2748
     15 N           5.3900   42.5286    8.4790 N.am    1  UNL1       -0.2839
     16 H           5.2671   43.4964    8.3470 H       1  UNL1        0.1549
     17 C          11.3101   40.3778    6.3053 C.ar    1  UNL1        0.0615
     18 C          11.3684   39.8542    7.6156 C.ar    1  UNL1       -0.0035
     19 C          12.1525   40.4923    8.5833 C.ar    1  UNL1       -0.0028
     20 C          12.8748   41.6433    8.2601 C.ar    1  UNL1       -0.0002
     21 C          12.8088   42.1700    6.9687 C.ar    1  UNL1        0.0015
     22 C          12.0252   41.5429    5.9973 C.ar    1  UNL1        0.0172
     23 C          10.5700   38.6567    8.0154 C.3     1  UNL1        0.0595
     24 C          11.2442   37.9385    9.1684 C.3     1  UNL1        0.1419
     25 O          10.3007   37.1777    9.8562 O.3     1  UNL1       -0.3816
     26 H           9.6045   37.7593   10.1996 H       1  UNL1        0.2105
@<TRIPOS>BOND
     1    12    13    1
     2    13    15   am
     3     7     8   ar
     4     9    10   ar
     5     9     1    1
     6    11     6   ar
     7     2     4   ar
     8     3     5   ar
     9    18    19   ar
    10    23    18    1
    11    23    24    1
    12    24    25    1
    13    20    21   ar
    14    22    17   ar
    15    15     6    1
    16     5    17    1
    17     5     1   ar
    18    13    14    2
    19     6     7   ar
    20     8     9   ar
    21    10    11   ar
    22     1     4   ar
    23     2     3   ar
    24    17    18   ar
    25    19    20   ar
    26    21    22   ar
    27    25    26    1
    28    15    16    1
@<TRIPOS>MOLECULE
MolPort-020-186-520 72122310 CSSS00159808843 MCULE-9656903396 PubChem-56882414 ZINC000072122310 ZINC72122310
 26 28 0 0 0
SMALL
GASTEIGER

@<TRIPOS>ATOM
      1 C          10.7763   42.2003    9.8365 C.ar    1  UNL1        0.1477
      2 C           9.4428   43.8209   10.2630 C.ar    1  UNL1        0.1195
      3 C           8.7561   42.8826    9.5154 C.ar    1  UNL1        0.1021
      4 N          10.7071   43.3926   10.4605 N.ar    1  UNL1       -0.2248
      5 N           9.6026   41.8729    9.2494 N.ar    1  UNL1       -0.2892
      6 C          14.2772   39.7102    9.9473 C.ar    1  UNL1        0.0503
      7 C          13.2948   39.6097   10.9429 C.ar    1  UNL1        0.0148
      8 C          12.1618   40.4267   10.9022 C.ar    1  UNL1        0.0043
      9 C          11.9957   41.3613    9.8711 C.ar    1  UNL1        0.0346
     10 C          12.9734   41.4487    8.8703 C.ar    1  UNL1        0.0043
     11 C          14.1066   40.6324    8.9107 C.ar    1  UNL1        0.0148
     12 C          17.3548   37.5518   10.9250 C.3     1  UNL1        0.0949
     13 C          16.1447   38.3942   11.1089 C.2     1  UNL1        0.2266
     14 O          15.7476   38.6575   12.2745 O.2     1  UNL1       -0.2748
     15 N          15.4541   38.8906    9.9555 N.am    1  UNL1       -0.2839
     16 H          15.8259   38.6435    9.0781 H       1  UNL1        0.1549
     17 C           9.2807   40.7368    8.4344 C.ar    1  UNL1        0.0615
     18 C           8.1566   40.7414    7.5796 C.ar    1  UNL1       -0.0035
     19 C           7.8607   39.6062    6.8167 C.ar    1  UNL1       -0.0028
     20 C           8.6696   38.4704    6.8980 C.ar    1  UNL1       -0.0002
     21 C           9.7743   38.4590    7.7518 C.ar    1  UNL1        0.0015
     22 C          10.0750   39.5856    8.5208 C.ar    1  UNL1        0.0172
     23 C           7.2368   41.9159    7.5036 C.3     1  UNL1        0.0595
     24 C           7.4047   42.6279    6.1752 C.3     1  UNL1        0.1419
     25 O           6.3627   42.2694    5.3220 O.3     1  UNL1       -0.3816
     26 H           6.3772   41.3101    5.1793 H       1  UNL1        0.2105
@<TRIPOS>BOND
     1    12    13    1
     2    13    15   am
     3     7     8   ar
     4     9    10   ar
     5     9     1    1
     6    11     6   ar
     7     2     4   ar
     8     3     5   ar
     9    18    19   ar
    10    23    18    1
    11    23    24    1
    12    24    25    1
    13    20    21   ar
    14    22    17   ar
    15    15     6    1
    16     5    17    1
    17     5     1   ar
    18    13    14    2
    19     6     7   ar
    20     8     9   ar
    21    10    11   ar
    22     1     4   ar
    23     2     3   ar
    24    17    18   ar
    25    19    20   ar
    26    21    22   ar
    27    25    26    1
    28    15    16    1
