@<TRIPOS>MOLECULE
Molport-047-071-874 PubChem-132766510
 33 36 0 0 0
SMALL
GASTEIGER

@<TRIPOS>ATOM
      1 C          15.0238   39.9814    9.6858 C.ar    1  UNL1        0.1368
      2 C          13.7957   40.6020    9.4589 C.ar    1  UNL1        0.0492
      3 C          12.6364   39.9818    9.9242 C.ar    1  UNL1        0.0644
      4 C          13.9258   38.2018   10.7970 C.ar    1  UNL1        0.1406
      5 C          13.9976   36.9053   11.5203 C.3     1  UNL1        0.0737
      6 N          12.7222   38.7937   10.5830 N.ar    1  UNL1       -0.2348
      7 N          15.0637   38.7940   10.3501 N.ar    1  UNL1       -0.2159
      8 C          11.3117   40.6277    9.6891 C.3     1  UNL1        0.0603
      9 C          11.4839   42.1034    9.3144 C.3     1  UNL1        0.0094
     10 C          10.1551   42.8704    9.2209 C.3     1  UNL1        0.0220
     11 C           8.9380   42.0025    9.5380 C.3     1  UNL1        0.0937
     12 C          10.4099   40.4768   10.9161 C.3     1  UNL1        0.0996
     13 C           8.2802   41.3532   11.8993 C.2     1  UNL1        0.2492
     14 N           9.1696   41.2466   10.7700 N.am    1  UNL1       -0.2757
     15 O           8.7094   41.0760   13.0510 O.2     1  UNL1       -0.2699
     16 C           6.8676   41.7621   11.7815 C.2     1  UNL1        0.0595
     17 C           6.0296   41.2812   10.8693 C.2     1  UNL1        0.0232
     18 C           4.6348   41.7244   10.7998 C.ar    1  UNL1        0.0773
     19 C           3.9824   42.0811    9.6454 C.ar    1  UNL1        0.1175
     20 C           2.6532   42.2644   11.3219 C.ar    1  UNL1        0.1750
     21 N           2.7258   42.4226    9.9835 N.ar    1  UNL1       -0.2225
     22 N           3.8128   41.8346   11.8576 N.ar    1  UNL1       -0.3349
     23 H           4.0115   41.6454   12.8031 H       1  UNL1        0.1675
     24 N          16.2209   40.6109    9.2135 N.pl3   1  UNL1       -0.2679
     25 H          17.0750   40.2102    9.4951 H       1  UNL1        0.1565
     26 C          18.7294   44.4423    7.4814 C.3     1  UNL1        0.0522
     27 C          17.4882   43.6265    7.5198 C.ar    1  UNL1        0.0634
     28 C          16.3933   43.9853    6.7359 C.ar    1  UNL1        0.0296
     29 C          15.2479   43.1942    6.7999 C.ar    1  UNL1        0.0634
     30 C          14.0595   43.5401    5.9782 C.3     1  UNL1        0.0522
     31 C          16.2948   41.7672    8.3710 C.ar    1  UNL1        0.2211
     32 N          15.2192   42.1048    7.6116 N.ar    1  UNL1       -0.2179
     33 N          17.4205   42.5307    8.3194 N.ar    1  UNL1       -0.2179
@<TRIPOS>BOND
     1    26    27    1
     2    27    33   ar
     3    28    29   ar
     4    30    29    1
     5    31    32   ar
     6    31    24    1
     7     1     7   ar
     8     2     3   ar
     9     4     6   ar
    10     5     4    1
    11     8     3    1
    12     8     9    1
    13     9    10    1
    14    10    11    1
    15    11    14    1
    16    12    14    1
    17    12     8    1
    18    13    16    1
    19    17    18    1
    20    19    21   ar
    21    20    22   ar
    22    24     1    1
    23    14    13   am
    24    22    18   ar
    25    27    28   ar
    26    29    32   ar
    27    31    33   ar
    28     1     2   ar
    29     3     6   ar
    30     4     7   ar
    31    13    15    2
    32    16    17    2
    33    18    19   ar
    34    20    21   ar
    35    24    25    1
    36    22    23    1
@<TRIPOS>MOLECULE
Molport-047-071-874 PubChem-132766510
 33 36 0 0 0
SMALL
GASTEIGER

@<TRIPOS>ATOM
      1 C          15.6299   41.9190    8.0177 C.ar    1  UNL1        0.1368
      2 C          14.3309   41.4119    8.0255 C.ar    1  UNL1        0.0492
      3 C          13.3483   42.0771    7.2925 C.ar    1  UNL1        0.0644
      4 C          14.9400   43.6800    6.5928 C.ar    1  UNL1        0.1406
      5 C          15.2708   44.9050    5.8187 C.3     1  UNL1        0.0737
      6 N          13.6700   43.1985    6.5911 N.ar    1  UNL1       -0.2348
      7 N          15.9079   43.0428    7.3015 N.ar    1  UNL1       -0.2159
      8 C          11.9511   41.5527    7.2900 C.3     1  UNL1        0.0603
      9 C          11.3594   41.5854    5.8769 C.3     1  UNL1        0.0094
     10 C           9.8683   41.2154    5.8289 C.3     1  UNL1        0.0220
     11 C           9.2820   40.9073    7.2060 C.3     1  UNL1        0.0937
     12 C          11.0753   42.3391    8.2677 C.3     1  UNL1        0.0996
     13 C           8.6769   42.7080    8.8856 C.2     1  UNL1        0.2492
     14 N           9.6647   41.9514    8.1579 N.am    1  UNL1       -0.2757
     15 O           8.9768   43.8486    9.3290 O.2     1  UNL1       -0.2699
     16 C           7.3151   42.2102    9.1581 C.2     1  UNL1        0.0595
     17 C           6.2064   42.8359    8.7773 C.2     1  UNL1        0.0232
     18 C           4.8785   42.2934    9.0757 C.ar    1  UNL1        0.0773
     19 C           3.8312   43.0206    9.5852 C.ar    1  UNL1        0.1175
     20 C           3.2281   40.9813    9.2882 C.ar    1  UNL1        0.1750
     21 N           2.7872   42.1825    9.7177 N.ar    1  UNL1       -0.2225
     22 N           4.5135   41.0139    8.8846 N.ar    1  UNL1       -0.3349
     23 H           5.0582   40.2733    8.5322 H       1  UNL1        0.1675
     24 N          16.6471   41.2423    8.7659 N.pl3   1  UNL1       -0.2679
     25 H          17.5679   41.5769    8.6684 H       1  UNL1        0.1565
     26 C          18.3555   37.1805   10.9001 C.3     1  UNL1        0.0522
     27 C          17.2576   38.1583   10.6855 C.ar    1  UNL1        0.0634
     28 C          16.0370   37.9905   11.3366 C.ar    1  UNL1        0.0296
     29 C          15.0328   38.9295   11.1091 C.ar    1  UNL1        0.0634
     30 C          13.7177   38.7891   11.7857 C.3     1  UNL1        0.0522
     31 C          16.4534   40.1256    9.6422 C.ar    1  UNL1        0.2211
     32 N          15.2576   39.9750   10.2708 N.ar    1  UNL1       -0.2179
     33 N          17.4437   39.2162    9.8542 N.ar    1  UNL1       -0.2179
@<TRIPOS>BOND
     1    26    27    1
     2    27    33   ar
     3    28    29   ar
     4    30    29    1
     5    31    32   ar
     6    31    24    1
     7     1     7   ar
     8     2     3   ar
     9     4     6   ar
    10     5     4    1
    11     8     3    1
    12     8     9    1
    13     9    10    1
    14    10    11    1
    15    11    14    1
    16    12    14    1
    17    12     8    1
    18    13    16    1
    19    17    18    1
    20    19    21   ar
    21    20    22   ar
    22    24     1    1
    23    14    13   am
    24    22    18   ar
    25    27    28   ar
    26    29    32   ar
    27    31    33   ar
    28     1     2   ar
    29     3     6   ar
    30     4     7   ar
    31    13    15    2
    32    16    17    2
    33    18    19   ar
    34    20    21   ar
    35    24    25    1
    36    22    23    1
@<TRIPOS>MOLECULE
Molport-047-071-874 PubChem-132766510
 33 36 0 0 0
SMALL
GASTEIGER

@<TRIPOS>ATOM
      1 C          14.7419   39.8637    9.6924 C.ar    1  UNL1        0.1368
      2 C          13.5955   40.6573    9.7193 C.ar    1  UNL1        0.0492
      3 C          12.4143   40.1100   10.2199 C.ar    1  UNL1        0.0644
      4 C          13.5254   38.0641   10.6352 C.ar    1  UNL1        0.1406
      5 C          13.4891   36.6631   11.1302 C.3     1  UNL1        0.0737
      6 N          12.4004   38.8245   10.6672 N.ar    1  UNL1       -0.2348
      7 N          14.6834   38.5833   10.1508 N.ar    1  UNL1       -0.2159
      8 C          11.1753   40.9413   10.2547 C.3     1  UNL1        0.0603
      9 C          10.4447   40.7746   11.5912 C.3     1  UNL1        0.0094
     10 C           9.0757   41.4724   11.6317 C.3     1  UNL1        0.0220
     11 C           8.7215   42.1748   10.3216 C.3     1  UNL1        0.0937
     12 C          10.2562   40.5932    9.0819 C.3     1  UNL1        0.0996
     13 C           7.9149   40.9347    8.2621 C.2     1  UNL1        0.2492
     14 N           8.9626   41.2766    9.1911 N.am    1  UNL1       -0.2757
     15 O           8.0006   39.8651    7.6019 O.2     1  UNL1       -0.2699
     16 C           6.7336   41.7861    8.0251 C.2     1  UNL1        0.0595
     17 C           6.4150   42.8379    8.7720 C.2     1  UNL1        0.0232
     18 C           5.2279   43.6485    8.4887 C.ar    1  UNL1        0.0773
     19 C           4.0168   43.5127    9.1213 C.ar    1  UNL1        0.1175
     20 C           3.9084   45.0890    7.6672 C.ar    1  UNL1        0.1750
     21 N           3.1841   44.4293    8.5956 N.ar    1  UNL1       -0.2225
     22 N           5.1734   44.6333    7.5754 N.ar    1  UNL1       -0.3349
     23 H           5.8903   44.9482    6.9786 H       1  UNL1        0.1675
     24 N          15.9608   40.4167    9.1818 N.pl3   1  UNL1       -0.2679
     25 H          16.7934   39.9421    9.4072 H       1  UNL1        0.1565
     26 C          18.5860   44.2613    7.6652 C.3     1  UNL1        0.0522
     27 C          17.3353   43.4601    7.6271 C.ar    1  UNL1        0.0634
     28 C          16.2804   43.8528    6.8056 C.ar    1  UNL1        0.0296
     29 C          15.1245   43.0744    6.7979 C.ar    1  UNL1        0.0634
     30 C          13.9776   43.4564    5.9342 C.3     1  UNL1        0.0522
     31 C          16.0849   41.5938    8.3747 C.ar    1  UNL1        0.2211
     32 N          15.0478   41.9645    7.5780 N.ar    1  UNL1       -0.2179
     33 N          17.2201   42.3445    8.3932 N.ar    1  UNL1       -0.2179
@<TRIPOS>BOND
     1    26    27    1
     2    27    33   ar
     3    28    29   ar
     4    30    29    1
     5    31    32   ar
     6    31    24    1
     7     1     7   ar
     8     2     3   ar
     9     4     6   ar
    10     5     4    1
    11     8     3    1
    12     8     9    1
    13     9    10    1
    14    10    11    1
    15    11    14    1
    16    12    14    1
    17    12     8    1
    18    13    16    1
    19    17    18    1
    20    19    21   ar
    21    20    22   ar
    22    24     1    1
    23    14    13   am
    24    22    18   ar
    25    27    28   ar
    26    29    32   ar
    27    31    33   ar
    28     1     2   ar
    29     3     6   ar
    30     4     7   ar
    31    13    15    2
    32    16    17    2
    33    18    19   ar
    34    20    21   ar
    35    24    25    1
    36    22    23    1
@<TRIPOS>MOLECULE
Molport-047-071-874 PubChem-132766510
 33 36 0 0 0
SMALL
GASTEIGER

@<TRIPOS>ATOM
      1 C           7.2333   41.4418   11.1223 C.ar    1  UNL1        0.1368
      2 C           8.3860   41.2951   10.3512 C.ar    1  UNL1        0.0492
      3 C           9.5910   41.0157   10.9953 C.ar    1  UNL1        0.0644
      4 C           8.4903   41.0390   13.0883 C.ar    1  UNL1        0.1406
      5 C           8.5450   40.9003   14.5671 C.3     1  UNL1        0.0737
      6 N           9.6216   40.8940   12.3508 N.ar    1  UNL1       -0.2348
      7 N           7.3091   41.3108   12.4751 N.ar    1  UNL1       -0.2159
      8 C          10.8369   40.8580   10.1888 C.3     1  UNL1        0.0603
      9 C          12.0013   40.3942   11.0702 C.3     1  UNL1        0.0094
     10 C          13.3524   40.3716   10.3375 C.3     1  UNL1        0.0220
     11 C          13.2543   40.8330    8.8840 C.3     1  UNL1        0.0937
     12 C          11.1834   42.1617    9.4665 C.3     1  UNL1        0.0996
     13 C          13.0492   43.2712    8.2182 C.2     1  UNL1        0.2492
     14 N          12.4902   42.0791    8.8050 N.am    1  UNL1       -0.2757
     15 O          12.5884   44.3961    8.5492 O.2     1  UNL1       -0.2699
     16 C          14.1397   43.2497    7.2249 C.2     1  UNL1        0.0595
     17 C          15.3724   43.6827    7.4669 C.2     1  UNL1        0.0232
     18 C          16.4169   43.6364    6.4405 C.ar    1  UNL1        0.0773
     19 C          16.2151   43.8845    5.1051 C.ar    1  UNL1        0.1175
     20 C          18.2833   43.4277    5.4586 C.ar    1  UNL1        0.1750
     21 N          17.4029   43.7505    4.4878 N.ar    1  UNL1       -0.2225
     22 N          17.7089   43.3493    6.6753 N.ar    1  UNL1       -0.3349
     23 H          18.1360   43.1323    7.5354 H       1  UNL1        0.1675
     24 N           5.9899   41.7272   10.4704 N.pl3   1  UNL1       -0.2679
     25 H           5.1772   41.3487   10.8773 H       1  UNL1        0.1565
     26 C           3.4986   45.1016    7.9448 C.3     1  UNL1        0.0522
     27 C           4.6263   44.1391    8.0432 C.ar    1  UNL1        0.0634
     28 C           5.5163   43.9967    6.9804 C.ar    1  UNL1        0.0296
     29 C           6.5609   43.0838    7.1120 C.ar    1  UNL1        0.0634
     30 C           7.5336   42.9034    6.0036 C.3     1  UNL1        0.0522
     31 C           5.8154   42.5103    9.2835 C.ar    1  UNL1        0.2211
     32 N           6.6916   42.3610    8.2551 N.ar    1  UNL1       -0.2179
     33 N           4.7896   43.3978    9.1694 N.ar    1  UNL1       -0.2179
@<TRIPOS>BOND
     1    26    27    1
     2    27    33   ar
     3    28    29   ar
     4    30    29    1
     5    31    32   ar
     6    31    24    1
     7     1     7   ar
     8     2     3   ar
     9     4     6   ar
    10     5     4    1
    11     8     3    1
    12     8     9    1
    13     9    10    1
    14    10    11    1
    15    11    14    1
    16    12    14    1
    17    12     8    1
    18    13    16    1
    19    17    18    1
    20    19    21   ar
    21    20    22   ar
    22    24     1    1
    23    14    13   am
    24    22    18   ar
    25    27    28   ar
    26    29    32   ar
    27    31    33   ar
    28     1     2   ar
    29     3     6   ar
    30     4     7   ar
    31    13    15    2
    32    16    17    2
    33    18    19   ar
    34    20    21   ar
    35    24    25    1
    36    22    23    1
@<TRIPOS>MOLECULE
Molport-047-071-874 PubChem-132766510
 33 36 0 0 0
SMALL
GASTEIGER

@<TRIPOS>ATOM
      1 C           7.3454   41.0876   11.7579 C.ar    1  UNL1        0.1368
      2 C           8.1480   41.4178   10.6662 C.ar    1  UNL1        0.0492
      3 C           9.5126   41.6164   10.8746 C.ar    1  UNL1        0.0644
      4 C           9.2375   41.1650   13.1796 C.ar    1  UNL1        0.1406
      5 C           9.8249   41.0274   14.5381 C.3     1  UNL1        0.0737
      6 N          10.0320   41.4877   12.1263 N.ar    1  UNL1       -0.2348
      7 N           7.9066   40.9680   12.9923 N.ar    1  UNL1       -0.2159
      8 C          10.3887   41.9735    9.7203 C.3     1  UNL1        0.0603
      9 C           9.8575   41.3567    8.4221 C.3     1  UNL1        0.0094
     10 C          10.8013   41.5458    7.2236 C.3     1  UNL1        0.0220
     11 C          12.0827   42.2972    7.5820 C.3     1  UNL1        0.0937
     12 C          11.8326   41.5392    9.9812 C.3     1  UNL1        0.0996
     13 C          14.0216   41.2175    8.8087 C.2     1  UNL1        0.2492
     14 N          12.6739   41.7286    8.7944 N.am    1  UNL1       -0.2757
     15 O          14.3473   40.3606    9.6730 O.2     1  UNL1       -0.2699
     16 C          15.0642   41.6570    7.8619 C.2     1  UNL1        0.0595
     17 C          15.4928   42.9106    7.7597 C.2     1  UNL1        0.0232
     18 C          16.5330   43.2896    6.8000 C.ar    1  UNL1        0.0773
     19 C          16.3139   44.0048    5.6485 C.ar    1  UNL1        0.1175
     20 C          18.4013   43.5352    5.8305 C.ar    1  UNL1        0.1750
     21 N          17.5031   44.1572    5.0381 N.ar    1  UNL1       -0.2225
     22 N          17.8371   42.9895    6.9261 N.ar    1  UNL1       -0.3349
     23 H          18.2775   42.4879    7.6498 H       1  UNL1        0.1675
     24 N           5.9427   40.8798   11.5545 N.pl3   1  UNL1       -0.2679
     25 H           5.5069   40.2015   12.1195 H       1  UNL1        0.1565
     26 C           5.2075   44.6251    8.4878 C.3     1  UNL1        0.0522
     27 C           4.7350   43.3661    9.1197 C.ar    1  UNL1        0.0634
     28 C           3.4832   42.8487    8.7923 C.ar    1  UNL1        0.0296
     29 C           3.0767   41.6656    9.4063 C.ar    1  UNL1        0.0634
     30 C           1.7507   41.0787    9.0833 C.3     1  UNL1        0.0522
     31 C           5.1129   41.5640   10.6080 C.ar    1  UNL1        0.2211
     32 N           3.8944   41.0473   10.2981 N.ar    1  UNL1       -0.2179
     33 N           5.5234   42.7192   10.0167 N.ar    1  UNL1       -0.2179
@<TRIPOS>BOND
     1    26    27    1
     2    27    33   ar
     3    28    29   ar
     4    30    29    1
     5    31    32   ar
     6    31    24    1
     7     1     7   ar
     8     2     3   ar
     9     4     6   ar
    10     5     4    1
    11     8     3    1
    12     8     9    1
    13     9    10    1
    14    10    11    1
    15    11    14    1
    16    12    14    1
    17    12     8    1
    18    13    16    1
    19    17    18    1
    20    19    21   ar
    21    20    22   ar
    22    24     1    1
    23    14    13   am
    24    22    18   ar
    25    27    28   ar
    26    29    32   ar
    27    31    33   ar
    28     1     2   ar
    29     3     6   ar
    30     4     7   ar
    31    13    15    2
    32    16    17    2
    33    18    19   ar
    34    20    21   ar
    35    24    25    1
    36    22    23    1
@<TRIPOS>MOLECULE
Molport-047-071-874 PubChem-132766510
 33 36 0 0 0
SMALL
GASTEIGER

@<TRIPOS>ATOM
      1 C           7.6849   41.7603   11.2686 C.ar    1  UNL1        0.1368
      2 C           8.7837   41.4344   10.4741 C.ar    1  UNL1        0.0492
      3 C           9.9623   41.0247   11.0974 C.ar    1  UNL1        0.0644
      4 C           8.9410   41.2724   13.2159 C.ar    1  UNL1        0.1406
      5 C           9.0243   41.1847   14.6973 C.3     1  UNL1        0.0737
      6 N          10.0199   40.9523   12.4554 N.ar    1  UNL1       -0.2348
      7 N           7.7861   41.6726   12.6233 N.ar    1  UNL1       -0.2159
      8 C          11.1508   40.6744   10.2655 C.3     1  UNL1        0.0603
      9 C          10.7668   39.6940    9.1523 C.3     1  UNL1        0.0094
     10 C          11.9731   39.1627    8.3615 C.3     1  UNL1        0.0220
     11 C          13.3080   39.7124    8.8626 C.3     1  UNL1        0.0937
     12 C          12.2716   40.1018   11.1358 C.3     1  UNL1        0.0996
     13 C          14.4466   38.8726   10.9670 C.2     1  UNL1        0.2492
     14 N          13.3814   39.5968   10.3200 N.am    1  UNL1       -0.2757
     15 O          14.2643   38.4110   12.1250 O.2     1  UNL1       -0.2699
     16 C          15.7661   38.6479   10.3465 C.2     1  UNL1        0.0595
     17 C          16.3762   37.4681   10.3069 C.2     1  UNL1        0.0232
     18 C          17.6881   37.3038    9.6758 C.ar    1  UNL1        0.0773
     19 C          18.1182   36.1610    9.0478 C.ar    1  UNL1        0.1175
     20 C          19.6495   37.6636    8.9585 C.ar    1  UNL1        0.1750
     21 N          19.3631   36.3957    8.5951 N.ar    1  UNL1       -0.2225
     22 N          18.6383   38.2533    9.6265 N.ar    1  UNL1       -0.3349
     23 H          18.6037   39.1664    9.9929 H       1  UNL1        0.1675
     24 N           6.4690   42.1806   10.6385 N.pl3   1  UNL1       -0.2679
     25 H           5.6396   42.0780   11.1591 H       1  UNL1        0.1565
     26 C           4.2138   45.1904    7.5037 C.3     1  UNL1        0.0522
     27 C           5.2683   44.1836    7.7899 C.ar    1  UNL1        0.0634
     28 C           6.1376   43.7777    6.7791 C.ar    1  UNL1        0.0296
     29 C           7.1132   42.8317    7.0879 C.ar    1  UNL1        0.0634
     30 C           8.0617   42.3739    6.0402 C.3     1  UNL1        0.0522
     31 C           6.3436   42.7358    9.3238 C.ar    1  UNL1        0.2211
     32 N           7.1988   42.3306    8.3480 N.ar    1  UNL1       -0.2179
     33 N           5.3851   43.6587    9.0371 N.ar    1  UNL1       -0.2179
@<TRIPOS>BOND
     1    26    27    1
     2    27    33   ar
     3    28    29   ar
     4    30    29    1
     5    31    32   ar
     6    31    24    1
     7     1     7   ar
     8     2     3   ar
     9     4     6   ar
    10     5     4    1
    11     8     3    1
    12     8     9    1
    13     9    10    1
    14    10    11    1
    15    11    14    1
    16    12    14    1
    17    12     8    1
    18    13    16    1
    19    17    18    1
    20    19    21   ar
    21    20    22   ar
    22    24     1    1
    23    14    13   am
    24    22    18   ar
    25    27    28   ar
    26    29    32   ar
    27    31    33   ar
    28     1     2   ar
    29     3     6   ar
    30     4     7   ar
    31    13    15    2
    32    16    17    2
    33    18    19   ar
    34    20    21   ar
    35    24    25    1
    36    22    23    1
@<TRIPOS>MOLECULE
Molport-047-071-874 PubChem-132766510
 33 36 0 0 0
SMALL
GASTEIGER

@<TRIPOS>ATOM
      1 C          14.6726   39.4336    9.2213 C.ar    1  UNL1        0.1368
      2 C          13.4193   39.8901    8.8141 C.ar    1  UNL1        0.0492
      3 C          12.3438   39.0025    8.8373 C.ar    1  UNL1        0.0644
      4 C          13.7604   37.2898    9.6451 C.ar    1  UNL1        0.1406
      5 C          13.9461   35.8854   10.0949 C.3     1  UNL1        0.0737
      6 N          12.5338   37.7196    9.2508 N.ar    1  UNL1       -0.2348
      7 N          14.8175   38.1428    9.6284 N.ar    1  UNL1       -0.2159
      8 C          10.9948   39.4700    8.4026 C.3     1  UNL1        0.0603
      9 C          11.0621   40.1104    7.0122 C.3     1  UNL1        0.0094
     10 C           9.7408   40.7622    6.5739 C.3     1  UNL1        0.0220
     11 C           8.6382   40.6492    7.6258 C.3     1  UNL1        0.0937
     12 C          10.4032   40.4431    9.4247 C.3     1  UNL1        0.0996
     13 C           8.5513   42.1059    9.6996 C.2     1  UNL1        0.2492
     14 N           9.1558   41.0422    8.9375 N.am    1  UNL1       -0.2757
     15 O           9.2381   42.7131   10.5639 O.2     1  UNL1       -0.2699
     16 C           7.1461   42.5235    9.5332 C.2     1  UNL1        0.0595
     17 C           6.7446   43.4488    8.6682 C.2     1  UNL1        0.0232
     18 C           5.3334   43.8234    8.5457 C.ar    1  UNL1        0.0773
     19 C           4.3014   43.2224    9.2233 C.ar    1  UNL1        0.1175
     20 C           3.5374   44.7894    7.9697 C.ar    1  UNL1        0.1750
     21 N           3.1647   43.8398    8.8535 N.ar    1  UNL1       -0.2225
     22 N           4.8681   44.8073    7.7569 N.ar    1  UNL1       -0.3349
     23 H           5.3799   45.4022    7.1625 H       1  UNL1        0.1675
     24 N          15.7838   40.3377    9.2029 N.pl3   1  UNL1       -0.2679
     25 H          16.5416   40.1231    9.7936 H       1  UNL1        0.1565
     26 C          18.4104   44.1697    7.6575 C.3     1  UNL1        0.0522
     27 C          17.1491   43.3845    7.6469 C.ar    1  UNL1        0.0634
     28 C          16.0749   43.8011    6.8630 C.ar    1  UNL1        0.0296
     29 C          14.9096   43.0370    6.8803 C.ar    1  UNL1        0.0634
     30 C          13.7421   43.4446    6.0568 C.3     1  UNL1        0.0522
     31 C          15.8982   41.5239    8.4078 C.ar    1  UNL1        0.2211
     32 N          14.8424   41.9178    7.6478 N.ar    1  UNL1       -0.2179
     33 N          17.0430   42.2603    8.4016 N.ar    1  UNL1       -0.2179
@<TRIPOS>BOND
     1    26    27    1
     2    27    33   ar
     3    28    29   ar
     4    30    29    1
     5    31    32   ar
     6    31    24    1
     7     1     7   ar
     8     2     3   ar
     9     4     6   ar
    10     5     4    1
    11     8     3    1
    12     8     9    1
    13     9    10    1
    14    10    11    1
    15    11    14    1
    16    12    14    1
    17    12     8    1
    18    13    16    1
    19    17    18    1
    20    19    21   ar
    21    20    22   ar
    22    24     1    1
    23    14    13   am
    24    22    18   ar
    25    27    28   ar
    26    29    32   ar
    27    31    33   ar
    28     1     2   ar
    29     3     6   ar
    30     4     7   ar
    31    13    15    2
    32    16    17    2
    33    18    19   ar
    34    20    21   ar
    35    24    25    1
    36    22    23    1
@<TRIPOS>MOLECULE
Molport-047-071-874 PubChem-132766510
 33 36 0 0 0
SMALL
GASTEIGER

@<TRIPOS>ATOM
      1 C           9.1388   42.9625   10.6601 C.ar    1  UNL1        0.1368
      2 C          10.2960   42.4181   10.1041 C.ar    1  UNL1        0.0492
      3 C          10.9724   41.4223   10.8084 C.ar    1  UNL1        0.0644
      4 C           9.3688   41.5440   12.5422 C.ar    1  UNL1        0.1406
      5 C           8.8664   41.0724   13.8591 C.3     1  UNL1        0.0737
      6 N          10.4978   41.0046   12.0138 N.ar    1  UNL1       -0.2348
      7 N           8.6989   42.5143   11.8678 N.ar    1  UNL1       -0.2159
      8 C          12.2147   40.8286   10.2324 C.3     1  UNL1        0.0603
      9 C          12.4545   41.3420    8.8088 C.3     1  UNL1        0.0094
     10 C          13.6243   40.6450    8.0956 C.3     1  UNL1        0.0220
     11 C          14.2950   39.5717    8.9520 C.3     1  UNL1        0.0937
     12 C          12.1472   39.3002   10.2584 C.3     1  UNL1        0.0996
     13 C          13.2889   37.2748    9.3285 C.2     1  UNL1        0.2492
     14 N          13.2807   38.6996    9.5465 N.am    1  UNL1       -0.2757
     15 O          12.2162   36.6255    9.4522 O.2     1  UNL1       -0.2699
     16 C          14.5044   36.5167    8.9759 C.2     1  UNL1        0.0595
     17 C          14.5749   35.1898    8.9671 C.2     1  UNL1        0.0232
     18 C          15.8107   34.4898    8.6074 C.ar    1  UNL1        0.0773
     19 C          15.9253   33.1300    8.4550 C.ar    1  UNL1        0.1175
     20 C          17.8200   34.0689    8.0816 C.ar    1  UNL1        0.1750
     21 N          17.2023   32.8694    8.1215 N.ar    1  UNL1       -0.2225
     22 N          16.9910   35.0899    8.3758 N.ar    1  UNL1       -0.3349
     23 H          17.2009   36.0511    8.4124 H       1  UNL1        0.1675
     24 N           8.4353   43.9847    9.9441 N.pl3   1  UNL1       -0.2679
     25 H           8.5946   44.9147   10.2251 H       1  UNL1        0.1565
     26 C           4.3267   45.2055    7.5774 C.3     1  UNL1        0.0522
     27 C           5.5399   44.3561    7.6975 C.ar    1  UNL1        0.0634
     28 C           5.7915   43.3622    6.7538 C.ar    1  UNL1        0.0296
     29 C           6.9402   42.5872    6.9015 C.ar    1  UNL1        0.0634
     30 C           7.2471   41.5188    5.9158 C.3     1  UNL1        0.0522
     31 C           7.5223   43.7838    8.8584 C.ar    1  UNL1        0.2211
     32 N           7.7810   42.8107    7.9452 N.ar    1  UNL1       -0.2179
     33 N           6.4039   44.5485    8.7276 N.ar    1  UNL1       -0.2179
@<TRIPOS>BOND
     1    26    27    1
     2    27    33   ar
     3    28    29   ar
     4    30    29    1
     5    31    32   ar
     6    31    24    1
     7     1     7   ar
     8     2     3   ar
     9     4     6   ar
    10     5     4    1
    11     8     3    1
    12     8     9    1
    13     9    10    1
    14    10    11    1
    15    11    14    1
    16    12    14    1
    17    12     8    1
    18    13    16    1
    19    17    18    1
    20    19    21   ar
    21    20    22   ar
    22    24     1    1
    23    14    13   am
    24    22    18   ar
    25    27    28   ar
    26    29    32   ar
    27    31    33   ar
    28     1     2   ar
    29     3     6   ar
    30     4     7   ar
    31    13    15    2
    32    16    17    2
    33    18    19   ar
    34    20    21   ar
    35    24    25    1
    36    22    23    1
@<TRIPOS>MOLECULE
Molport-047-071-874 PubChem-132766510
 33 36 0 0 0
SMALL
GASTEIGER

@<TRIPOS>ATOM
      1 C          14.7588   39.4095    9.1124 C.ar    1  UNL1        0.1368
      2 C          13.4521   39.7854    8.8028 C.ar    1  UNL1        0.0492
      3 C          12.4743   38.7950    8.7123 C.ar    1  UNL1        0.0644
      4 C          14.0858   37.1419    9.2251 C.ar    1  UNL1        0.1406
      5 C          14.4295   35.7141    9.4541 C.3     1  UNL1        0.0737
      6 N          12.8087   37.4925    8.9237 N.ar    1  UNL1       -0.2348
      7 N          15.0489   38.0953    9.3172 N.ar    1  UNL1       -0.2159
      8 C          11.0703   39.1758    8.3790 C.3     1  UNL1        0.0603
      9 C          10.9815   39.7384    6.9565 C.3     1  UNL1        0.0094
     10 C           9.5955   40.3040    6.6073 C.3     1  UNL1        0.0220
     11 C           8.5980   40.2015    7.7604 C.3     1  UNL1        0.0937
     12 C          10.5241   40.1777    9.3984 C.3     1  UNL1        0.0996
     13 C           8.6230   41.7683    9.7539 C.2     1  UNL1        0.2492
     14 N           9.2098   40.6913    8.9966 N.am    1  UNL1       -0.2757
     15 O           9.3528   42.4540   10.5185 O.2     1  UNL1       -0.2699
     16 C           7.1895   42.1120    9.6951 C.2     1  UNL1        0.0595
     17 C           6.2232   41.2281    9.4704 C.2     1  UNL1        0.0232
     18 C           4.8143   41.6273    9.4233 C.ar    1  UNL1        0.0773
     19 C           4.3699   42.9168    9.2644 C.ar    1  UNL1        0.1175
     20 C           2.6956   41.5821    9.4260 C.ar    1  UNL1        0.1750
     21 N           3.0251   42.8813    9.2669 N.ar    1  UNL1       -0.2225
     22 N           3.7749   40.7811    9.5254 N.ar    1  UNL1       -0.3349
     23 H           3.7969   39.8042    9.6450 H       1  UNL1        0.1675
     24 N          15.7705   40.4191    9.2096 N.pl3   1  UNL1       -0.2679
     25 H          16.4545   40.2979    9.9072 H       1  UNL1        0.1565
     26 C          13.8223   43.5256    5.9651 C.3     1  UNL1        0.0522
     27 C          14.9617   43.1033    6.8201 C.ar    1  UNL1        0.0634
     28 C          16.1419   43.8444    6.8252 C.ar    1  UNL1        0.0296
     29 C          17.1871   43.4155    7.6410 C.ar    1  UNL1        0.0634
     30 C          18.4614   44.1785    7.6780 C.3     1  UNL1        0.0522
     31 C          15.8826   41.5883    8.3892 C.ar    1  UNL1        0.2211
     32 N          17.0397   42.3014    8.4047 N.ar    1  UNL1       -0.2179
     33 N          14.8530   41.9946    7.5970 N.ar    1  UNL1       -0.2179
@<TRIPOS>BOND
     1    26    27    1
     2    27    33   ar
     3    28    29   ar
     4    30    29    1
     5    31    32   ar
     6    31    24    1
     7     1     7   ar
     8     2     3   ar
     9     4     6   ar
    10     5     4    1
    11     8     3    1
    12     8     9    1
    13     9    10    1
    14    10    11    1
    15    11    14    1
    16    12    14    1
    17    12     8    1
    18    13    16    1
    19    17    18    1
    20    19    21   ar
    21    20    22   ar
    22    24     1    1
    23    14    13   am
    24    22    18   ar
    25    27    28   ar
    26    29    32   ar
    27    31    33   ar
    28     1     2   ar
    29     3     6   ar
    30     4     7   ar
    31    13    15    2
    32    16    17    2
    33    18    19   ar
    34    20    21   ar
    35    24    25    1
    36    22    23    1
@<TRIPOS>MOLECULE
Molport-047-071-874 PubChem-132766510
 33 36 0 0 0
SMALL
GASTEIGER

@<TRIPOS>ATOM
      1 C           7.7866   41.8809   11.3445 C.ar    1  UNL1        0.1368
      2 C           8.8801   41.6433   10.5122 C.ar    1  UNL1        0.0492
      3 C          10.0756   41.2103   11.0852 C.ar    1  UNL1        0.0644
      4 C           9.0805   41.2653   13.2298 C.ar    1  UNL1        0.1406
      5 C           9.1871   41.0610   14.6982 C.3     1  UNL1        0.0737
      6 N          10.1545   41.0304   12.4322 N.ar    1  UNL1       -0.2348
      7 N           7.9092   41.6870   12.6863 N.ar    1  UNL1       -0.2159
      8 C          11.2588   40.9533   10.2127 C.3     1  UNL1        0.0603
      9 C          10.9693   41.3680    8.7662 C.3     1  UNL1        0.0094
     10 C          12.0843   40.9777    7.7827 C.3     1  UNL1        0.0220
     11 C          13.2440   40.2414    8.4521 C.3     1  UNL1        0.0937
     12 C          11.6776   39.4834   10.2866 C.3     1  UNL1        0.0996
     13 C          13.1256   37.8004    9.1286 C.2     1  UNL1        0.2492
     14 N          12.7296   39.1742    9.3119 N.am    1  UNL1       -0.2757
     15 O          12.3726   36.8803    9.5455 O.2     1  UNL1       -0.2699
     16 C          14.3902   37.4019    8.4817 C.2     1  UNL1        0.0595
     17 C          14.8058   36.1442    8.3768 C.2     1  UNL1        0.0232
     18 C          16.0725   35.8070    7.7222 C.ar    1  UNL1        0.0773
     19 C          16.1846   35.1193    6.5390 C.ar    1  UNL1        0.1175
     20 C          18.1364   35.6279    7.2758 C.ar    1  UNL1        0.1750
     21 N          17.4964   35.0090    6.2614 N.ar    1  UNL1       -0.2225
     22 N          17.2885   36.1319    8.1942 N.ar    1  UNL1       -0.3349
     23 H          17.5083   36.6233    9.0185 H       1  UNL1        0.1675
     24 N           6.5533   42.3243   10.7660 N.pl3   1  UNL1       -0.2679
     25 H           5.7557   42.2950   11.3423 H       1  UNL1        0.1565
     26 C           7.9319   42.4318    6.0691 C.3     1  UNL1        0.0522
     27 C           7.0174   42.8743    7.1534 C.ar    1  UNL1        0.0634
     28 C           5.9786   43.7594    6.8716 C.ar    1  UNL1        0.0296
     29 C           5.1426   44.1500    7.9160 C.ar    1  UNL1        0.0634
     30 C           4.0214   45.0899    7.6579 C.3     1  UNL1        0.0522
     31 C           6.3691   42.8062    9.4294 C.ar    1  UNL1        0.2211
     32 N           5.3512   43.6688    9.1695 N.ar    1  UNL1       -0.2179
     33 N           7.1942   42.4160    8.4197 N.ar    1  UNL1       -0.2179
@<TRIPOS>BOND
     1    26    27    1
     2    27    33   ar
     3    28    29   ar
     4    30    29    1
     5    31    32   ar
     6    31    24    1
     7     1     7   ar
     8     2     3   ar
     9     4     6   ar
    10     5     4    1
    11     8     3    1
    12     8     9    1
    13     9    10    1
    14    10    11    1
    15    11    14    1
    16    12    14    1
    17    12     8    1
    18    13    16    1
    19    17    18    1
    20    19    21   ar
    21    20    22   ar
    22    24     1    1
    23    14    13   am
    24    22    18   ar
    25    27    28   ar
    26    29    32   ar
    27    31    33   ar
    28     1     2   ar
    29     3     6   ar
    30     4     7   ar
    31    13    15    2
    32    16    17    2
    33    18    19   ar
    34    20    21   ar
    35    24    25    1
    36    22    23    1
