@<TRIPOS>MOLECULE
MolPort-002-630-792 2343945 LN00716437 PubChem-1618750 ZINC000002343945 ZINC02343945
 31 34 0 0 0
SMALL
GASTEIGER

@<TRIPOS>ATOM
      1 C          12.6167   42.3268    6.2793 C.ar    1  UNL1        0.1569
      2 C          13.4744   41.7249    7.1875 C.ar    1  UNL1        0.0689
      3 C          13.3143   40.7755    8.1917 C.ar    1  UNL1        0.0075
      4 C          14.4512   40.4562    8.9541 C.ar    1  UNL1        0.0209
      5 C          14.3720   39.5023    9.9706 C.ar    1  UNL1        0.0384
      6 C          15.5022   39.1852   10.7320 C.ar    1  UNL1        0.1388
      7 C          16.7216   39.8340   10.4700 C.ar    1  UNL1        0.0384
      8 C          16.8156   40.7925    9.4569 C.ar    1  UNL1        0.0223
      9 C          15.6925   41.1128    8.6921 C.ar    1  UNL1        0.0831
     10 C          14.6743   42.3393    6.9770 C.ar    1  UNL1        0.1621
     11 N          14.5530   43.2667    6.0152 N.ar    1  UNL1       -0.2329
     12 N          13.2954   43.2734    5.5849 N.ar    1  UNL1       -0.1527
     13 N          15.7822   42.0563    7.7072 N.ar    1  UNL1       -0.2268
     14 C          10.6013   40.9513    5.5345 C.2     1  UNL1        0.2717
     15 N          11.2098   42.1057    6.1209 N.am    1  UNL1       -0.2648
     16 O          11.2697   40.1549    4.8248 O.2     1  UNL1       -0.2707
     17 H          10.6067   42.8130    6.4452 H       1  UNL1        0.1564
     18 C           9.1364   40.7464    5.6798 C.3     1  UNL1        0.2897
     19 O           8.8909   39.7301    6.6429 O.3     1  UNL1       -0.4656
     20 C           9.5341   39.6945    7.8828 C.ar    1  UNL1        0.1393
     21 C          10.2705   38.5571    8.2315 C.ar    1  UNL1        0.0369
     22 C          10.9255   38.4906    9.4650 C.ar    1  UNL1        0.0031
     23 C          10.8468   39.5636   10.3574 C.ar    1  UNL1        0.0002
     24 C          10.1133   40.7034   10.0168 C.ar    1  UNL1        0.0031
     25 C           9.4584   40.7700    8.7836 C.ar    1  UNL1        0.0369
     26 C          14.3349   37.2703   11.7759 C.3     1  UNL1        0.2525
     27 O          15.3871   38.2248   11.7406 O.3     1  UNL1       -0.4714
     28 C          15.6035   44.1364    5.5101 C.3     1  UNL1        0.1292
     29 C          16.4178   44.6954    6.6651 C.3     1  UNL1        0.0264
     30 C          18.4009   43.9707    7.9904 C.3     1  UNL1        0.0001
     31 C          17.8493   44.1953    6.5950 C.3     1  UNL1        0.0021
@<TRIPOS>BOND
     1    30    31    1
     2    31    29    1
     3    29    28    1
     4    28    11    1
     5     1    15    1
     6     1     2   ar
     7    18    14    1
     8    18    19    1
     9    20    19    1
    10    21    22   ar
    11    23    24   ar
    12    25    20   ar
    13     3     4   ar
    14     5     6   ar
    15     6    27    1
    16    26    27    1
    17     7     8   ar
    18     9    13   ar
    19     9     4   ar
    20    10    11   ar
    21    10     2   ar
    22    11    12   ar
    23    15    14   am
    24     1    12   ar
    25    14    16    2
    26    20    21   ar
    27    22    23   ar
    28    24    25   ar
    29     2     3   ar
    30     4     5   ar
    31     6     7   ar
    32     8     9   ar
    33    10    13   ar
    34    15    17    1
@<TRIPOS>MOLECULE
MolPort-002-630-792 2343945 LN00716437 PubChem-1618750 ZINC000002343945 ZINC02343945
 31 34 0 0 0
SMALL
GASTEIGER

@<TRIPOS>ATOM
      1 C          11.8872   42.1436    7.3666 C.ar    1  UNL1        0.1569
      2 C          12.9194   41.5260    8.0562 C.ar    1  UNL1        0.0689
      3 C          12.9788   40.6565    9.1406 C.ar    1  UNL1        0.0075
      4 C          14.2577   40.2870    9.5920 C.ar    1  UNL1        0.0209
      5 C          14.3977   39.4068   10.6667 C.ar    1  UNL1        0.0384
      6 C          15.6700   39.0399   11.1188 C.ar    1  UNL1        0.1388
      7 C          16.8107   39.5640   10.4858 C.ar    1  UNL1        0.0384
      8 C          16.6862   40.4477    9.4100 C.ar    1  UNL1        0.0223
      9 C          15.4200   40.8169    8.9525 C.ar    1  UNL1        0.0831
     10 C          14.0534   42.0207    7.4807 C.ar    1  UNL1        0.1621
     11 N          13.7343   42.8951    6.5146 N.ar    1  UNL1       -0.2329
     12 N          12.4103   42.9843    6.4400 N.ar    1  UNL1       -0.1527
     13 N          15.2980   41.6877    7.9061 N.ar    1  UNL1       -0.2268
     14 C           9.7607   42.6670    8.6753 C.2     1  UNL1        0.2717
     15 N          10.4795   42.0356    7.6116 N.am    1  UNL1       -0.2648
     16 O          10.3623   43.1347    9.6774 O.2     1  UNL1       -0.2707
     17 H           9.9592   41.4757    6.9911 H       1  UNL1        0.1564
     18 C           8.2748   42.6778    8.6452 C.3     1  UNL1        0.2897
     19 O           7.7767   41.5172    9.2977 O.3     1  UNL1       -0.4656
     20 C           6.4412   41.3851    9.6866 C.ar    1  UNL1        0.1393
     21 C           6.1277   41.4038   11.0500 C.ar    1  UNL1        0.0369
     22 C           4.8008   41.2737   11.4714 C.ar    1  UNL1        0.0031
     23 C           3.7793   41.1239   10.5292 C.ar    1  UNL1        0.0002
     24 C           4.0839   41.1043    9.1654 C.ar    1  UNL1        0.0031
     25 C           5.4104   41.2343    8.7440 C.ar    1  UNL1        0.0369
     26 C          15.1957   36.8575   12.1823 C.3     1  UNL1        0.2525
     27 O          15.7730   38.1559   12.1962 O.3     1  UNL1       -0.4714
     28 C          14.6609   43.6387    5.6758 C.3     1  UNL1        0.1292
     29 C          15.5589   44.5111    6.5372 C.3     1  UNL1        0.0264
     30 C          17.8588   44.0377    7.3745 C.3     1  UNL1        0.0001
     31 C          17.0136   44.3220    6.1469 C.3     1  UNL1        0.0021
@<TRIPOS>BOND
     1    30    31    1
     2    31    29    1
     3    29    28    1
     4    28    11    1
     5     1    15    1
     6     1     2   ar
     7    18    14    1
     8    18    19    1
     9    20    19    1
    10    21    22   ar
    11    23    24   ar
    12    25    20   ar
    13     3     4   ar
    14     5     6   ar
    15     6    27    1
    16    26    27    1
    17     7     8   ar
    18     9    13   ar
    19     9     4   ar
    20    10    11   ar
    21    10     2   ar
    22    11    12   ar
    23    15    14   am
    24     1    12   ar
    25    14    16    2
    26    20    21   ar
    27    22    23   ar
    28    24    25   ar
    29     2     3   ar
    30     4     5   ar
    31     6     7   ar
    32     8     9   ar
    33    10    13   ar
    34    15    17    1
@<TRIPOS>MOLECULE
MolPort-002-630-792 2343945 LN00716437 PubChem-1618750 ZINC000002343945 ZINC02343945
 31 34 0 0 0
SMALL
GASTEIGER

@<TRIPOS>ATOM
      1 C          11.8374   42.0036    8.5169 C.ar    1  UNL1        0.1569
      2 C          12.0697   40.6845    8.8753 C.ar    1  UNL1        0.0689
      3 C          13.1370   39.8074    8.7111 C.ar    1  UNL1        0.0075
      4 C          12.9611   38.4944    9.1811 C.ar    1  UNL1        0.0209
      5 C          13.9927   37.5608    9.0642 C.ar    1  UNL1        0.0384
      6 C          13.8183   36.2527    9.5294 C.ar    1  UNL1        0.1388
      7 C          12.5958   35.8803   10.1153 C.ar    1  UNL1        0.0384
      8 C          11.5534   36.8035   10.2374 C.ar    1  UNL1        0.0223
      9 C          11.7208   38.1107    9.7770 C.ar    1  UNL1        0.0831
     10 C          10.8958   40.2758    9.4381 C.ar    1  UNL1        0.1621
     11 N          10.0007   41.2746    9.4099 N.ar    1  UNL1       -0.2329
     12 N          10.5634   42.3362    8.8415 N.ar    1  UNL1       -0.1527
     13 N          10.6986   39.0112    9.8885 N.ar    1  UNL1       -0.2268
     14 C          13.0329   42.8440    6.4258 C.2     1  UNL1        0.2717
     15 N          12.7195   42.8927    7.8208 N.am    1  UNL1       -0.2648
     16 O          12.7906   41.8155    5.7415 O.2     1  UNL1       -0.2707
     17 H          13.1493   43.6022    8.3511 H       1  UNL1        0.1564
     18 C          13.7496   43.9855    5.7994 C.3     1  UNL1        0.2897
     19 O          15.1009   43.6209    5.5508 O.3     1  UNL1       -0.4656
     20 C          16.0321   43.4320    6.5752 C.ar    1  UNL1        0.1393
     21 C          17.1261   44.2995    6.6646 C.ar    1  UNL1        0.0369
     22 C          18.0754   44.1368    7.6782 C.ar    1  UNL1        0.0031
     23 C          17.9346   43.1036    8.6090 C.ar    1  UNL1        0.0002
     24 C          16.8446   42.2328    8.5269 C.ar    1  UNL1        0.0031
     25 C          15.8955   42.3952    7.5135 C.ar    1  UNL1        0.0369
     26 C          15.7689   35.3637    8.2950 C.3     1  UNL1        0.2525
     27 O          14.8724   35.3447    9.3973 O.3     1  UNL1       -0.4714
     28 C           8.6347   41.2308    9.9074 C.3     1  UNL1        0.1292
     29 C           7.6568   41.4566    8.7662 C.3     1  UNL1        0.0264
     30 C           6.6355   40.2535    6.8364 C.3     1  UNL1        0.0001
     31 C           7.8974   40.4502    7.6554 C.3     1  UNL1        0.0021
@<TRIPOS>BOND
     1    30    31    1
     2    31    29    1
     3    29    28    1
     4    28    11    1
     5     1    15    1
     6     1     2   ar
     7    18    14    1
     8    18    19    1
     9    20    19    1
    10    21    22   ar
    11    23    24   ar
    12    25    20   ar
    13     3     4   ar
    14     5     6   ar
    15     6    27    1
    16    26    27    1
    17     7     8   ar
    18     9    13   ar
    19     9     4   ar
    20    10    11   ar
    21    10     2   ar
    22    11    12   ar
    23    15    14   am
    24     1    12   ar
    25    14    16    2
    26    20    21   ar
    27    22    23   ar
    28    24    25   ar
    29     2     3   ar
    30     4     5   ar
    31     6     7   ar
    32     8     9   ar
    33    10    13   ar
    34    15    17    1
@<TRIPOS>MOLECULE
MolPort-002-630-792 2343945 LN00716437 PubChem-1618750 ZINC000002343945 ZINC02343945
 31 34 0 0 0
SMALL
GASTEIGER

@<TRIPOS>ATOM
      1 C          12.7440   40.9116    8.5066 C.ar    1  UNL1        0.1569
      2 C          11.5257   41.0144    9.1607 C.ar    1  UNL1        0.0689
      3 C          10.2900   41.5620    8.8310 C.ar    1  UNL1        0.0075
      4 C           9.2881   41.5132    9.8156 C.ar    1  UNL1        0.0209
      5 C           8.0177   42.0300    9.5535 C.ar    1  UNL1        0.0384
      6 C           7.0201   41.9844   10.5335 C.ar    1  UNL1        0.1388
      7 C           7.3029   41.4159   11.7878 C.ar    1  UNL1        0.0384
      8 C           8.5706   40.8963   12.0654 C.ar    1  UNL1        0.0223
      9 C           9.5704   40.9369   11.0919 C.ar    1  UNL1        0.0831
     10 C          11.7599   40.4846   10.3960 C.ar    1  UNL1        0.1621
     11 N          13.0410   40.0989   10.4950 N.ar    1  UNL1       -0.2329
     12 N          13.6559   40.3618    9.3464 N.ar    1  UNL1       -0.1527
     13 N          10.8125   40.4367   11.3661 N.ar    1  UNL1       -0.2268
     14 C          13.2040   42.7540    6.8030 C.2     1  UNL1        0.2717
     15 N          13.0796   41.3841    7.1961 N.am    1  UNL1       -0.2648
     16 O          12.7269   43.6787    7.5116 O.2     1  UNL1       -0.2707
     17 H          13.2393   40.7036    6.5028 H       1  UNL1        0.1564
     18 C          13.8138   43.0824    5.4880 C.3     1  UNL1        0.2897
     19 O          14.9292   43.9422    5.6815 O.3     1  UNL1       -0.4656
     20 C          15.9656   43.6449    6.5702 C.ar    1  UNL1        0.1393
     21 C          15.8464   42.5243    7.3994 C.ar    1  UNL1        0.0369
     22 C          16.8660   42.2001    8.2996 C.ar    1  UNL1        0.0031
     23 C          18.0120   42.9968    8.3747 C.ar    1  UNL1        0.0002
     24 C          18.1390   44.1179    7.5500 C.ar    1  UNL1        0.0031
     25 C          17.1197   44.4422    6.6500 C.ar    1  UNL1        0.0369
     26 C           5.2579   42.5992    8.9100 C.3     1  UNL1        0.2525
     27 O           5.7596   42.5098   10.2365 O.3     1  UNL1       -0.4714
     28 C          13.6789   39.4947   11.6540 C.3     1  UNL1        0.1292
     29 C          13.6281   37.9796   11.5462 C.3     1  UNL1        0.0264
     30 C          15.5471   37.2052   10.1562 C.3     1  UNL1        0.0001
     31 C          14.0655   37.5319   10.1632 C.3     1  UNL1        0.0021
@<TRIPOS>BOND
     1    30    31    1
     2    31    29    1
     3    29    28    1
     4    28    11    1
     5     1    15    1
     6     1     2   ar
     7    18    14    1
     8    18    19    1
     9    20    19    1
    10    21    22   ar
    11    23    24   ar
    12    25    20   ar
    13     3     4   ar
    14     5     6   ar
    15     6    27    1
    16    26    27    1
    17     7     8   ar
    18     9    13   ar
    19     9     4   ar
    20    10    11   ar
    21    10     2   ar
    22    11    12   ar
    23    15    14   am
    24     1    12   ar
    25    14    16    2
    26    20    21   ar
    27    22    23   ar
    28    24    25   ar
    29     2     3   ar
    30     4     5   ar
    31     6     7   ar
    32     8     9   ar
    33    10    13   ar
    34    15    17    1
@<TRIPOS>MOLECULE
MolPort-002-630-792 2343945 LN00716437 PubChem-1618750 ZINC000002343945 ZINC02343945
 31 34 0 0 0
SMALL
GASTEIGER

@<TRIPOS>ATOM
      1 C          12.3208   41.4191    8.6359 C.ar    1  UNL1        0.1569
      2 C          12.5063   40.0898    8.9839 C.ar    1  UNL1        0.0689
      3 C          13.4340   39.1146    8.6321 C.ar    1  UNL1        0.0075
      4 C          13.2461   37.8311    9.1737 C.ar    1  UNL1        0.0209
      5 C          14.1439   36.8037    8.8775 C.ar    1  UNL1        0.0384
      6 C          13.9568   35.5250    9.4139 C.ar    1  UNL1        0.1388
      7 C          12.8568   35.2774   10.2536 C.ar    1  UNL1        0.0384
      8 C          11.9485   36.2955   10.5574 C.ar    1  UNL1        0.0223
      9 C          12.1298   37.5741   10.0272 C.ar    1  UNL1        0.0831
     10 C          11.4456   39.8011    9.7920 C.ar    1  UNL1        0.1621
     11 N          10.6558   40.8785    9.9158 N.ar    1  UNL1       -0.2329
     12 N          11.1777   41.8740    9.2063 N.ar    1  UNL1       -0.1527
     13 N          11.2370   38.5676   10.3172 N.ar    1  UNL1       -0.2268
     14 C          12.9147   42.3337    6.3296 C.2     1  UNL1        0.2717
     15 N          13.1117   42.2111    7.7413 N.am    1  UNL1       -0.2648
     16 O          12.2051   41.5070    5.6989 O.2     1  UNL1       -0.2707
     17 H          13.8592   42.7174    8.1341 H       1  UNL1        0.1564
     18 C          13.6428   43.3914    5.5811 C.3     1  UNL1        0.2897
     19 O          14.4279   44.1591    6.4839 O.3     1  UNL1       -0.4656
     20 C          15.7228   43.7913    6.8584 C.ar    1  UNL1        0.1393
     21 C          15.8926   42.7406    7.7665 C.ar    1  UNL1        0.0369
     22 C          17.1754   42.3488    8.1613 C.ar    1  UNL1        0.0031
     23 C          18.2967   43.0073    7.6485 C.ar    1  UNL1        0.0002
     24 C          18.1358   44.0578    6.7409 C.ar    1  UNL1        0.0031
     25 C          16.8533   44.4497    6.3462 C.ar    1  UNL1        0.0369
     26 C          15.7891   34.6290    8.0142 C.3     1  UNL1        0.2525
     27 O          14.8756   34.5207    9.0974 O.3     1  UNL1       -0.4714
     28 C           9.4264   40.9700   10.6873 C.3     1  UNL1        0.1292
     29 C           9.7286   41.4620   12.0931 C.3     1  UNL1        0.0264
     30 C           9.1482   41.0742   14.4863 C.3     1  UNL1        0.0001
     31 C           8.6450   41.0120   13.0562 C.3     1  UNL1        0.0021
@<TRIPOS>BOND
     1    30    31    1
     2    31    29    1
     3    29    28    1
     4    28    11    1
     5     1    15    1
     6     1     2   ar
     7    18    14    1
     8    18    19    1
     9    20    19    1
    10    21    22   ar
    11    23    24   ar
    12    25    20   ar
    13     3     4   ar
    14     5     6   ar
    15     6    27    1
    16    26    27    1
    17     7     8   ar
    18     9    13   ar
    19     9     4   ar
    20    10    11   ar
    21    10     2   ar
    22    11    12   ar
    23    15    14   am
    24     1    12   ar
    25    14    16    2
    26    20    21   ar
    27    22    23   ar
    28    24    25   ar
    29     2     3   ar
    30     4     5   ar
    31     6     7   ar
    32     8     9   ar
    33    10    13   ar
    34    15    17    1
@<TRIPOS>MOLECULE
MolPort-002-630-792 2343945 LN00716437 PubChem-1618750 ZINC000002343945 ZINC02343945
 31 34 0 0 0
SMALL
GASTEIGER

@<TRIPOS>ATOM
      1 C          12.1928   42.1603    6.7010 C.ar    1  UNL1        0.1569
      2 C          13.1136   41.5562    7.5434 C.ar    1  UNL1        0.0689
      3 C          13.0197   40.6453    8.5907 C.ar    1  UNL1        0.0075
      4 C          14.2137   40.3085    9.2516 C.ar    1  UNL1        0.0209
      5 C          14.2012   39.3905   10.3036 C.ar    1  UNL1        0.0384
      6 C          15.3885   39.0562   10.9641 C.ar    1  UNL1        0.1388
      7 C          16.5979   39.6513   10.5643 C.ar    1  UNL1        0.0384
      8 C          16.6256   40.5735    9.5142 C.ar    1  UNL1        0.0223
      9 C          15.4452   40.9106    8.8496 C.ar    1  UNL1        0.0831
     10 C          14.3075   42.1193    7.1980 C.ar    1  UNL1        0.1621
     11 N          14.1249   43.0199    6.2206 N.ar    1  UNL1       -0.2329
     12 N          12.8326   43.0592    5.9124 N.ar    1  UNL1       -0.1527
     13 N          15.4708   41.8188    7.8284 N.ar    1  UNL1       -0.2268
     14 C          10.0387   41.1270    5.8063 C.2     1  UNL1        0.2717
     15 N          10.7706   41.9862    6.6854 N.am    1  UNL1       -0.2648
     16 O          10.5641   40.6725    4.7565 O.2     1  UNL1       -0.2707
     17 H          10.2494   42.5053    7.3397 H       1  UNL1        0.1564
     18 C           8.6047   40.8516    6.0832 C.3     1  UNL1        0.2897
     19 O           7.8468   42.0398    5.8971 O.3     1  UNL1       -0.4656
     20 C           6.9539   42.5232    6.8569 C.ar    1  UNL1        0.1393
     21 C           6.5333   43.8554    6.7807 C.ar    1  UNL1        0.0369
     22 C           5.6405   44.3693    7.7262 C.ar    1  UNL1        0.0031
     23 C           5.1631   43.5513    8.7542 C.ar    1  UNL1        0.0002
     24 C           5.5781   42.2194    8.8374 C.ar    1  UNL1        0.0031
     25 C           6.4708   41.7056    7.8923 C.ar    1  UNL1        0.0369
     26 C          14.4655   37.0121   12.0076 C.3     1  UNL1        0.2525
     27 O          15.3394   38.1327   12.0118 O.3     1  UNL1       -0.4714
     28 C          15.1502   43.8341    5.5875 C.3     1  UNL1        0.1292
     29 C          15.9944   44.5250    6.6456 C.3     1  UNL1        0.0264
     30 C          18.1402   43.9798    7.7913 C.3     1  UNL1        0.0001
     31 C          17.4630   44.1944    6.4506 C.3     1  UNL1        0.0021
@<TRIPOS>BOND
     1    30    31    1
     2    31    29    1
     3    29    28    1
     4    28    11    1
     5     1    15    1
     6     1     2   ar
     7    18    14    1
     8    18    19    1
     9    20    19    1
    10    21    22   ar
    11    23    24   ar
    12    25    20   ar
    13     3     4   ar
    14     5     6   ar
    15     6    27    1
    16    26    27    1
    17     7     8   ar
    18     9    13   ar
    19     9     4   ar
    20    10    11   ar
    21    10     2   ar
    22    11    12   ar
    23    15    14   am
    24     1    12   ar
    25    14    16    2
    26    20    21   ar
    27    22    23   ar
    28    24    25   ar
    29     2     3   ar
    30     4     5   ar
    31     6     7   ar
    32     8     9   ar
    33    10    13   ar
    34    15    17    1
@<TRIPOS>MOLECULE
MolPort-002-630-792 2343945 LN00716437 PubChem-1618750 ZINC000002343945 ZINC02343945
 31 34 0 0 0
SMALL
GASTEIGER

@<TRIPOS>ATOM
      1 C          15.0459   44.0456   13.2700 C.ar    1  UNL1        0.1569
      2 C          15.4143   44.0428   14.6067 C.ar    1  UNL1        0.0689
      3 C          16.6248   44.1710   15.2803 C.ar    1  UNL1        0.0075
      4 C          16.5901   44.0565   16.6809 C.ar    1  UNL1        0.0209
      5 C          17.7628   44.1877   17.4272 C.ar    1  UNL1        0.0384
      6 C          17.7302   44.0715   18.8212 C.ar    1  UNL1        0.1388
      7 C          16.5085   43.8198   19.4696 C.ar    1  UNL1        0.0384
      8 C          15.3267   43.6841   18.7356 C.ar    1  UNL1        0.0223
      9 C          15.3513   43.8005   17.3446 C.ar    1  UNL1        0.0831
     10 C          14.2538   43.7853   15.2763 C.ar    1  UNL1        0.1621
     11 N          13.2465   43.6251   14.4048 N.ar    1  UNL1       -0.2329
     12 N          13.7206   43.7752   13.1722 N.ar    1  UNL1       -0.1527
     13 N          14.1972   43.6593   16.6260 N.ar    1  UNL1       -0.2268
     14 C          17.2460   44.6678   12.1382 C.2     1  UNL1        0.2717
     15 N          15.8946   44.1984   12.1256 N.am    1  UNL1       -0.2648
     16 O          17.7111   45.2807   13.1346 O.2     1  UNL1       -0.2707
     17 H          15.5128   43.9584   11.2505 H       1  UNL1        0.1564
     18 C          18.0800   44.5210   10.9168 C.3     1  UNL1        0.2897
     19 O          17.5386   43.4989   10.0903 O.3     1  UNL1       -0.4656
     20 C          17.1950   43.7130    8.7530 C.ar    1  UNL1        0.1393
     21 C          15.8468   43.8793    8.4183 C.ar    1  UNL1        0.0369
     22 C          15.4705   44.0950    7.0890 C.ar    1  UNL1        0.0031
     23 C          16.4430   44.1456    6.0863 C.ar    1  UNL1        0.0002
     24 C          17.7920   43.9806    6.4122 C.ar    1  UNL1        0.0031
     25 C          18.1683   43.7649    7.7411 C.ar    1  UNL1        0.0369
     26 C          19.2575   43.3781   20.6393 C.3     1  UNL1        0.2525
     27 O          18.9227   44.2096   19.5366 O.3     1  UNL1       -0.4714
     28 C          11.8587   43.3320   14.7259 C.3     1  UNL1        0.1292
     29 C          11.2642   42.4089   13.6752 C.3     1  UNL1        0.0264
     30 C           9.7220   40.6568   14.5505 C.3     1  UNL1        0.0001
     31 C          11.1623   40.9923   14.2110 C.3     1  UNL1        0.0021
@<TRIPOS>BOND
     1    30    31    1
     2    31    29    1
     3    29    28    1
     4    28    11    1
     5     1    15    1
     6     1     2   ar
     7    18    14    1
     8    18    19    1
     9    20    19    1
    10    21    22   ar
    11    23    24   ar
    12    25    20   ar
    13     3     4   ar
    14     5     6   ar
    15     6    27    1
    16    26    27    1
    17     7     8   ar
    18     9    13   ar
    19     9     4   ar
    20    10    11   ar
    21    10     2   ar
    22    11    12   ar
    23    15    14   am
    24     1    12   ar
    25    14    16    2
    26    20    21   ar
    27    22    23   ar
    28    24    25   ar
    29     2     3   ar
    30     4     5   ar
    31     6     7   ar
    32     8     9   ar
    33    10    13   ar
    34    15    17    1
@<TRIPOS>MOLECULE
MolPort-002-630-792 2343945 LN00716437 PubChem-1618750 ZINC000002343945 ZINC02343945
 31 34 0 0 0
SMALL
GASTEIGER

@<TRIPOS>ATOM
      1 C          11.9706   39.5057    8.1341 C.ar    1  UNL1        0.1569
      2 C          12.7355   40.5542    7.6459 C.ar    1  UNL1        0.0689
      3 C          13.9963   41.0588    7.9478 C.ar    1  UNL1        0.0075
      4 C          14.4093   42.2044    7.2456 C.ar    1  UNL1        0.0209
      5 C          15.6675   42.7607    7.4839 C.ar    1  UNL1        0.0384
      6 C          16.0790   43.9023    6.7875 C.ar    1  UNL1        0.1388
      7 C          15.2173   44.4901    5.8449 C.ar    1  UNL1        0.0384
      8 C          13.9540   43.9456    5.5971 C.ar    1  UNL1        0.0223
      9 C          13.5374   42.8057    6.2870 C.ar    1  UNL1        0.0831
     10 C          11.9269   41.1655    6.7327 C.ar    1  UNL1        0.1621
     11 N          10.7406   40.5412    6.6790 N.ar    1  UNL1       -0.2329
     12 N          10.7527   39.5271    7.5381 N.ar    1  UNL1       -0.1527
     13 N          12.2987   42.2781    6.0511 N.ar    1  UNL1       -0.2268
     14 C          11.5711   37.4090    9.5314 C.2     1  UNL1        0.2717
     15 N          12.3118   38.5792    9.1725 N.am    1  UNL1       -0.2648
     16 O          10.3782   37.2562    9.1592 O.2     1  UNL1       -0.2707
     17 H          13.1310   38.7648    9.6860 H       1  UNL1        0.1564
     18 C          12.1852   36.4089   10.4433 C.3     1  UNL1        0.2897
     19 O          13.5431   36.2014   10.0777 O.3     1  UNL1       -0.4656
     20 C          14.5649   37.0832   10.4392 C.ar    1  UNL1        0.1393
     21 C          14.4813   37.7503   11.6662 C.ar    1  UNL1        0.0369
     22 C          15.4875   38.6392   12.0567 C.ar    1  UNL1        0.0031
     23 C          16.5842   38.8655   11.2202 C.ar    1  UNL1        0.0002
     24 C          16.6753   38.2031    9.9929 C.ar    1  UNL1        0.0031
     25 C          15.6694   37.3145    9.6023 C.ar    1  UNL1        0.0369
     26 C          18.2525   43.8344    7.9667 C.3     1  UNL1        0.2525
     27 O          17.3454   44.4317    7.0503 O.3     1  UNL1       -0.4714
     28 C           9.6107   40.8948    5.8344 C.3     1  UNL1        0.1292
     29 C           9.2541   39.7299    4.9260 C.3     1  UNL1        0.0264
     30 C          10.9563   38.3607    3.7251 C.3     1  UNL1        0.0001
     31 C          10.1987   39.6752    3.7390 C.3     1  UNL1        0.0021
@<TRIPOS>BOND
     1    30    31    1
     2    31    29    1
     3    29    28    1
     4    28    11    1
     5     1    15    1
     6     1     2   ar
     7    18    14    1
     8    18    19    1
     9    20    19    1
    10    21    22   ar
    11    23    24   ar
    12    25    20   ar
    13     3     4   ar
    14     5     6   ar
    15     6    27    1
    16    26    27    1
    17     7     8   ar
    18     9    13   ar
    19     9     4   ar
    20    10    11   ar
    21    10     2   ar
    22    11    12   ar
    23    15    14   am
    24     1    12   ar
    25    14    16    2
    26    20    21   ar
    27    22    23   ar
    28    24    25   ar
    29     2     3   ar
    30     4     5   ar
    31     6     7   ar
    32     8     9   ar
    33    10    13   ar
    34    15    17    1
@<TRIPOS>MOLECULE
MolPort-002-630-792 2343945 LN00716437 PubChem-1618750 ZINC000002343945 ZINC02343945
 31 34 0 0 0
SMALL
GASTEIGER

@<TRIPOS>ATOM
      1 C          16.6057   40.9244    8.9803 C.ar    1  UNL1        0.1569
      2 C          15.3287   40.3892    9.0529 C.ar    1  UNL1        0.0689
      3 C          14.7993   39.2059    9.5580 C.ar    1  UNL1        0.0075
      4 C          13.4192   39.0009    9.3870 C.ar    1  UNL1        0.0209
      5 C          12.8131   37.8435    9.8794 C.ar    1  UNL1        0.0384
      6 C          11.4400   37.6368    9.7079 C.ar    1  UNL1        0.1388
      7 C          10.6705   38.6014    9.0341 C.ar    1  UNL1        0.0384
      8 C          11.2637   39.7641    8.5339 C.ar    1  UNL1        0.0223
      9 C          12.6329   39.9777    8.7029 C.ar    1  UNL1        0.0831
     10 C          14.5462   41.2917    8.3936 C.ar    1  UNL1        0.1621
     11 N          15.2987   42.3030    7.9345 N.ar    1  UNL1       -0.2329
     12 N          16.5632   42.0858    8.2814 N.ar    1  UNL1       -0.1527
     13 N          13.2147   41.1105    8.2063 N.ar    1  UNL1       -0.2268
     14 C          17.9712   39.5048   10.6015 C.2     1  UNL1        0.2717
     15 N          17.8284   40.3460    9.4532 N.am    1  UNL1       -0.2648
     16 O          17.0709   39.4463   11.4794 O.2     1  UNL1       -0.2707
     17 H          18.6450   40.5458    8.9409 H       1  UNL1        0.1564
     18 C          19.2455   38.7694   10.8124 C.3     1  UNL1        0.2897
     19 O          19.0087   37.3706   10.7230 O.3     1  UNL1       -0.4656
     20 C          18.5786   36.7520    9.5463 C.ar    1  UNL1        0.1393
     21 C          19.5101   36.5025    8.5327 C.ar    1  UNL1        0.0369
     22 C          19.1112   35.8852    7.3432 C.ar    1  UNL1        0.0031
     23 C          17.7760   35.5137    7.1617 C.ar    1  UNL1        0.0002
     24 C          16.8391   35.7593    8.1693 C.ar    1  UNL1        0.0031
     25 C          17.2378   36.3765    9.3584 C.ar    1  UNL1        0.0369
     26 C          11.6002   35.5207   10.9789 C.3     1  UNL1        0.2525
     27 O          10.8663   36.4676   10.2146 O.3     1  UNL1       -0.4714
     28 C          14.8361   43.4556    7.1777 C.3     1  UNL1        0.1292
     29 C          15.9982   44.3924    6.8923 C.3     1  UNL1        0.0264
     30 C          18.0127   43.7497    5.5719 C.3     1  UNL1        0.0001
     31 C          16.5493   44.1439    5.4998 C.3     1  UNL1        0.0021
@<TRIPOS>BOND
     1    30    31    1
     2    31    29    1
     3    29    28    1
     4    28    11    1
     5     1    15    1
     6     1     2   ar
     7    18    14    1
     8    18    19    1
     9    20    19    1
    10    21    22   ar
    11    23    24   ar
    12    25    20   ar
    13     3     4   ar
    14     5     6   ar
    15     6    27    1
    16    26    27    1
    17     7     8   ar
    18     9    13   ar
    19     9     4   ar
    20    10    11   ar
    21    10     2   ar
    22    11    12   ar
    23    15    14   am
    24     1    12   ar
    25    14    16    2
    26    20    21   ar
    27    22    23   ar
    28    24    25   ar
    29     2     3   ar
    30     4     5   ar
    31     6     7   ar
    32     8     9   ar
    33    10    13   ar
    34    15    17    1
@<TRIPOS>MOLECULE
MolPort-002-630-792 2343945 LN00716437 PubChem-1618750 ZINC000002343945 ZINC02343945
 31 34 0 0 0
SMALL
GASTEIGER

@<TRIPOS>ATOM
      1 C          11.1905   41.1542    6.3768 C.ar    1  UNL1        0.1569
      2 C          11.5259   40.2002    7.3255 C.ar    1  UNL1        0.0689
      3 C          12.6961   39.8753    8.0040 C.ar    1  UNL1        0.0075
      4 C          12.6435   38.7721    8.8736 C.ar    1  UNL1        0.0209
      5 C          13.7743   38.3936    9.5998 C.ar    1  UNL1        0.0384
      6 C          13.7241   37.2943   10.4639 C.ar    1  UNL1        0.1388
      7 C          12.5273   36.5688   10.5973 C.ar    1  UNL1        0.0384
      8 C          11.3877   36.9346    9.8752 C.ar    1  UNL1        0.0223
      9 C          11.4299   38.0313    9.0125 C.ar    1  UNL1        0.0831
     10 C          10.3900   39.4593    7.4756 C.ar    1  UNL1        0.1621
     11 N           9.4298   39.9205    6.6600 N.ar    1  UNL1       -0.2329
     12 N           9.9103   40.9542    5.9766 N.ar    1  UNL1       -0.1527
     13 N          10.3182   38.3840    8.2999 N.ar    1  UNL1       -0.2268
     14 C          12.7956   43.1327    6.5093 C.2     1  UNL1        0.2717
     15 N          12.0405   42.1500    5.7945 N.am    1  UNL1       -0.2648
     16 O          12.5377   43.4014    7.7118 O.2     1  UNL1       -0.2707
     17 H          12.1113   42.1588    4.8126 H       1  UNL1        0.1564
     18 C          13.8307   43.9210    5.7908 C.3     1  UNL1        0.2897
     19 O          15.0402   43.1765    5.7312 O.3     1  UNL1       -0.4656
     20 C          15.9350   43.1039    6.8018 C.ar    1  UNL1        0.1393
     21 C          15.8108   42.0541    7.7184 C.ar    1  UNL1        0.0369
     22 C          16.6905   41.9537    8.8006 C.ar    1  UNL1        0.0031
     23 C          17.7006   42.9047    8.9714 C.ar    1  UNL1        0.0002
     24 C          17.8315   43.9564    8.0603 C.ar    1  UNL1        0.0031
     25 C          16.9520   44.0569    6.9785 C.ar    1  UNL1        0.0369
     26 C          15.9356   37.8579   11.4182 C.3     1  UNL1        0.2525
     27 O          14.8744   36.9443   11.1762 O.3     1  UNL1       -0.4714
     28 C           8.0807   39.3949    6.5228 C.3     1  UNL1        0.1292
     29 C           7.0679   40.5222    6.6374 C.3     1  UNL1        0.0264
     30 C           7.3906   42.4165    8.2255 C.3     1  UNL1        0.0001
     31 C           6.9400   40.9749    8.0807 C.3     1  UNL1        0.0021
@<TRIPOS>BOND
     1    30    31    1
     2    31    29    1
     3    29    28    1
     4    28    11    1
     5     1    15    1
     6     1     2   ar
     7    18    14    1
     8    18    19    1
     9    20    19    1
    10    21    22   ar
    11    23    24   ar
    12    25    20   ar
    13     3     4   ar
    14     5     6   ar
    15     6    27    1
    16    26    27    1
    17     7     8   ar
    18     9    13   ar
    19     9     4   ar
    20    10    11   ar
    21    10     2   ar
    22    11    12   ar
    23    15    14   am
    24     1    12   ar
    25    14    16    2
    26    20    21   ar
    27    22    23   ar
    28    24    25   ar
    29     2     3   ar
    30     4     5   ar
    31     6     7   ar
    32     8     9   ar
    33    10    13   ar
    34    15    17    1
