@<TRIPOS>MOLECULE
MolPort-002-625-187 9359837 PubChem-2044515 ZINC000009359837 ZINC09359837
 27 30 0 0 0
SMALL
GASTEIGER

@<TRIPOS>ATOM
      1 C          11.8236   42.3518    8.6820 C.ar    1  UNL1        0.1571
      2 C          10.7750   41.6469    8.1112 C.ar    1  UNL1        0.0689
      3 C          10.6711   40.7499    7.0529 C.ar    1  UNL1        0.0074
      4 C           9.3835   40.2821    6.7381 C.ar    1  UNL1        0.0179
      5 C           9.2003   39.3686    5.6977 C.ar    1  UNL1        0.0015
      6 C           7.9158   38.9102    5.3890 C.ar    1  UNL1        0.0001
      7 C           6.8100   39.3634    6.1167 C.ar    1  UNL1        0.0015
      8 C           6.9778   40.2796    7.1598 C.ar    1  UNL1        0.0192
      9 C           8.2544   40.7462    7.4820 C.ar    1  UNL1        0.0829
     10 C           9.6712   42.0760    8.7886 C.ar    1  UNL1        0.1621
     11 N          10.0212   42.9950    9.7012 N.ar    1  UNL1       -0.2329
     12 N          11.3362   43.1782    9.6404 N.ar    1  UNL1       -0.1527
     13 N           8.4173   41.6484    8.4957 N.ar    1  UNL1       -0.2268
     14 C          13.7481   42.9126    7.1019 C.2     1  UNL1        0.2683
     15 N          13.2031   42.3376    8.2954 N.am    1  UNL1       -0.2631
     16 O          12.9946   43.2198    6.1389 O.2     1  UNL1       -0.2681
     17 H          13.8341   41.8921    8.9058 H       1  UNL1        0.1567
     18 C          15.2032   43.0912    6.9826 C.ar    1  UNL1        0.1348
     19 C          17.0530   44.0380    5.8227 C.ar    1  UNL1        0.0990
     20 C          17.9473   43.4502    6.7195 C.ar    1  UNL1        0.0207
     21 C          17.4499   42.6698    7.7638 C.ar    1  UNL1        0.0033
     22 C          16.0729   42.4865    7.8999 C.ar    1  UNL1        0.0238
     23 N          15.7143   43.8481    5.9714 N.ar    1  UNL1       -0.2392
     24 C           9.1307   43.6948   10.6137 C.3     1  UNL1        0.1292
     25 C           8.6902   45.0146   10.0025 C.3     1  UNL1        0.0264
     26 C           6.5337   44.5126    8.8577 C.3     1  UNL1        0.0001
     27 C           8.0147   44.7787    8.6638 C.3     1  UNL1        0.0021
@<TRIPOS>BOND
     1    26    27    1
     2    27    25    1
     3    25    24    1
     4    24    11    1
     5     1    15    1
     6     1     2   ar
     7    14    18    1
     8    19    23   ar
     9    20    21   ar
    10    22    18   ar
    11     3     4   ar
    12     5     6   ar
    13     7     8   ar
    14     9    13   ar
    15     9     4   ar
    16    10    11   ar
    17    10     2   ar
    18    11    12   ar
    19    15    14   am
    20     1    12   ar
    21    14    16    2
    22    18    23   ar
    23    19    20   ar
    24    21    22   ar
    25     2     3   ar
    26     4     5   ar
    27     6     7   ar
    28     8     9   ar
    29    10    13   ar
    30    15    17    1
@<TRIPOS>MOLECULE
MolPort-002-625-187 9359837 PubChem-2044515 ZINC000009359837 ZINC09359837
 27 30 0 0 0
SMALL
GASTEIGER

@<TRIPOS>ATOM
      1 C          13.7467   36.8248    4.8261 C.ar    1  UNL1        0.1571
      2 C          13.3576   35.6569    4.1883 C.ar    1  UNL1        0.0689
      3 C          12.1582   35.1961    3.6549 C.ar    1  UNL1        0.0074
      4 C          12.1543   33.8932    3.1273 C.ar    1  UNL1        0.0179
      5 C          10.9917   33.3653    2.5614 C.ar    1  UNL1        0.0015
      6 C          10.9954   32.0673    2.0412 C.ar    1  UNL1        0.0001
      7 C          12.1589   31.2916    2.0856 C.ar    1  UNL1        0.0015
      8 C          13.3301   31.8060    2.6510 C.ar    1  UNL1        0.0192
      9 C          13.3437   33.1014    3.1737 C.ar    1  UNL1        0.0829
     10 C          14.4681   34.8653    4.2258 C.ar    1  UNL1        0.1621
     11 N          15.4643   35.5019    4.8600 N.ar    1  UNL1       -0.2329
     12 N          15.0324   36.7003    5.2393 N.ar    1  UNL1       -0.1527
     13 N          14.4858   33.6009    3.7342 N.ar    1  UNL1       -0.2268
     14 C          11.7783   38.3946    4.4067 C.2     1  UNL1        0.2683
     15 N          12.9400   37.9694    5.1290 N.am    1  UNL1       -0.2631
     16 O          11.5488   37.9526    3.2485 O.2     1  UNL1       -0.2681
     17 H          13.2085   38.5133    5.9044 H       1  UNL1        0.1567
     18 C          10.8810   39.3963    5.0023 C.ar    1  UNL1        0.1348
     19 C          10.6052   41.4837    6.1114 C.ar    1  UNL1        0.0990
     20 C           9.2199   41.3122    6.1417 C.ar    1  UNL1        0.0207
     21 C           8.6647   40.1573    5.5895 C.ar    1  UNL1        0.0033
     22 C           9.4947   39.1924    5.0165 C.ar    1  UNL1        0.0238
     23 N          11.3981   40.5324    5.5487 N.ar    1  UNL1       -0.2392
     24 C          16.8018   34.9882    5.1105 C.3     1  UNL1        0.1292
     25 C          17.4687   34.6091    3.7988 C.3     1  UNL1        0.0264
     26 C          17.7281   36.4948    2.1896 C.3     1  UNL1        0.0001
     27 C          18.3791   35.7274    3.3250 C.3     1  UNL1        0.0021
@<TRIPOS>BOND
     1    26    27    1
     2    27    25    1
     3    25    24    1
     4    24    11    1
     5     1    15    1
     6     1     2   ar
     7    14    18    1
     8    19    23   ar
     9    20    21   ar
    10    22    18   ar
    11     3     4   ar
    12     5     6   ar
    13     7     8   ar
    14     9    13   ar
    15     9     4   ar
    16    10    11   ar
    17    10     2   ar
    18    11    12   ar
    19    15    14   am
    20     1    12   ar
    21    14    16    2
    22    18    23   ar
    23    19    20   ar
    24    21    22   ar
    25     2     3   ar
    26     4     5   ar
    27     6     7   ar
    28     8     9   ar
    29    10    13   ar
    30    15    17    1
@<TRIPOS>MOLECULE
MolPort-002-625-187 9359837 PubChem-2044515 ZINC000009359837 ZINC09359837
 27 30 0 0 0
SMALL
GASTEIGER

@<TRIPOS>ATOM
      1 C          11.8169   41.9772    8.7906 C.ar    1  UNL1        0.1571
      2 C          10.7123   41.4135    8.1708 C.ar    1  UNL1        0.0689
      3 C          10.5063   40.7651    6.9572 C.ar    1  UNL1        0.0074
      4 C           9.1886   40.3784    6.6570 C.ar    1  UNL1        0.0179
      5 C           8.9047   39.7101    5.4640 C.ar    1  UNL1        0.0015
      6 C           7.5908   39.3313    5.1714 C.ar    1  UNL1        0.0001
      7 C           6.5561   39.6197    6.0679 C.ar    1  UNL1        0.0015
      8 C           6.8249   40.2901    7.2655 C.ar    1  UNL1        0.0192
      9 C           8.1322   40.6741    7.5735 C.ar    1  UNL1        0.0829
     10 C           9.6749   41.6892    9.0130 C.ar    1  UNL1        0.1621
     11 N          10.1150   42.3900   10.0690 N.ar    1  UNL1       -0.2329
     12 N          11.4243   42.5794    9.9405 N.ar    1  UNL1       -0.1527
     13 N           8.3935   41.3370    8.7398 N.ar    1  UNL1       -0.2268
     14 C          13.6148   42.8438    7.1994 C.2     1  UNL1        0.2683
     15 N          13.1604   42.0438    8.2975 N.am    1  UNL1       -0.2631
     16 O          12.7901   43.3318    6.3801 O.2     1  UNL1       -0.2681
     17 H          13.8328   41.4890    8.7550 H       1  UNL1        0.1567
     18 C          15.0577   43.0470    6.9991 C.ar    1  UNL1        0.1348
     19 C          16.8229   44.0362    5.7466 C.ar    1  UNL1        0.0990
     20 C          17.7763   43.4529    6.5835 C.ar    1  UNL1        0.0207
     21 C          17.3518   42.6530    7.6451 C.ar    1  UNL1        0.0033
     22 C          15.9879   42.4461    7.8576 C.ar    1  UNL1        0.0238
     23 N          15.4981   43.8232    5.9695 N.ar    1  UNL1       -0.2392
     24 C           9.3144   42.8792   11.1804 C.3     1  UNL1        0.1292
     25 C           8.7541   41.7103   11.9735 C.3     1  UNL1        0.0264
     26 C           9.2050   41.1087   14.3500 C.3     1  UNL1        0.0001
     27 C           9.7905   41.1896   12.9527 C.3     1  UNL1        0.0021
@<TRIPOS>BOND
     1    26    27    1
     2    27    25    1
     3    25    24    1
     4    24    11    1
     5     1    15    1
     6     1     2   ar
     7    14    18    1
     8    19    23   ar
     9    20    21   ar
    10    22    18   ar
    11     3     4   ar
    12     5     6   ar
    13     7     8   ar
    14     9    13   ar
    15     9     4   ar
    16    10    11   ar
    17    10     2   ar
    18    11    12   ar
    19    15    14   am
    20     1    12   ar
    21    14    16    2
    22    18    23   ar
    23    19    20   ar
    24    21    22   ar
    25     2     3   ar
    26     4     5   ar
    27     6     7   ar
    28     8     9   ar
    29    10    13   ar
    30    15    17    1
@<TRIPOS>MOLECULE
MolPort-002-625-187 9359837 PubChem-2044515 ZINC000009359837 ZINC09359837
 27 30 0 0 0
SMALL
GASTEIGER

@<TRIPOS>ATOM
      1 C           4.0104   41.6219   11.6012 C.ar    1  UNL1        0.1571
      2 C           2.8509   41.9984   12.2615 C.ar    1  UNL1        0.0689
      3 C           2.2961   43.2206   12.6277 C.ar    1  UNL1        0.0074
      4 C           1.0963   43.1821   13.3589 C.ar    1  UNL1        0.0179
      5 C           0.4712   44.3680   13.7505 C.ar    1  UNL1        0.0015
      6 C          -0.7209   44.3212   14.4801 C.ar    1  UNL1        0.0001
      7 C          -1.2917   43.0906   14.8226 C.ar    1  UNL1        0.0015
      8 C          -0.6761   41.8948   14.4392 C.ar    1  UNL1        0.0192
      9 C           0.5141   41.9241   13.7087 C.ar    1  UNL1        0.0829
     10 C           2.2713   40.8183   12.6259 C.ar    1  UNL1        0.1621
     11 N           3.0357   39.7897   12.2291 N.ar    1  UNL1       -0.2329
     12 N           4.1078   40.2693   11.6069 N.ar    1  UNL1       -0.1527
     13 N           1.1203   40.7555   13.3416 N.ar    1  UNL1       -0.2268
     14 C           5.7510   42.2678    9.8496 C.2     1  UNL1        0.2683
     15 N           5.0348   42.4731   11.0731 N.am    1  UNL1       -0.2631
     16 O           5.7403   41.1409    9.2843 O.2     1  UNL1       -0.2681
     17 H           5.2678   43.2720   11.5992 H       1  UNL1        0.1567
     18 C           6.5483   43.3666    9.2835 C.ar    1  UNL1        0.1348
     19 C           8.5136   44.7066    9.3548 C.ar    1  UNL1        0.0990
     20 C           8.0837   45.4392    8.2466 C.ar    1  UNL1        0.0207
     21 C           6.8613   45.1217    7.6534 C.ar    1  UNL1        0.0033
     22 C           6.0868   44.0820    8.1706 C.ar    1  UNL1        0.0238
     23 N           7.7452   43.6968    9.8448 N.ar    1  UNL1       -0.2392
     24 C           2.7643   38.3760   12.4369 C.3     1  UNL1        0.1292
     25 C           2.0449   37.8002   11.2285 C.3     1  UNL1        0.0264
     26 C           0.7829   35.7239   10.6722 C.3     1  UNL1        0.0001
     27 C           0.9412   36.8560   11.6697 C.3     1  UNL1        0.0021
@<TRIPOS>BOND
     1    26    27    1
     2    27    25    1
     3    25    24    1
     4    24    11    1
     5     1    15    1
     6     1     2   ar
     7    14    18    1
     8    19    23   ar
     9    20    21   ar
    10    22    18   ar
    11     3     4   ar
    12     5     6   ar
    13     7     8   ar
    14     9    13   ar
    15     9     4   ar
    16    10    11   ar
    17    10     2   ar
    18    11    12   ar
    19    15    14   am
    20     1    12   ar
    21    14    16    2
    22    18    23   ar
    23    19    20   ar
    24    21    22   ar
    25     2     3   ar
    26     4     5   ar
    27     6     7   ar
    28     8     9   ar
    29    10    13   ar
    30    15    17    1
@<TRIPOS>MOLECULE
MolPort-002-625-187 9359837 PubChem-2044515 ZINC000009359837 ZINC09359837
 27 30 0 0 0
SMALL
GASTEIGER

@<TRIPOS>ATOM
      1 C          11.7892   41.8945    7.4150 C.ar    1  UNL1        0.1571
      2 C          10.9662   41.7909    8.5258 C.ar    1  UNL1        0.0689
      3 C          11.1922   41.6922    9.8951 C.ar    1  UNL1        0.0074
      4 C          10.0626   41.5430   10.7182 C.ar    1  UNL1        0.0179
      5 C          10.2076   41.4515   12.1042 C.ar    1  UNL1        0.0015
      6 C           9.0790   41.3005   12.9160 C.ar    1  UNL1        0.0001
      7 C           7.8024   41.2387   12.3468 C.ar    1  UNL1        0.0015
      8 C           7.6418   41.3269   10.9603 C.ar    1  UNL1        0.0192
      9 C           8.7588   41.4796   10.1354 C.ar    1  UNL1        0.0829
     10 C           9.7068   41.7128    8.0071 C.ar    1  UNL1        0.1621
     11 N           9.7593   41.7491    6.6670 N.ar    1  UNL1       -0.2329
     12 N          11.0303   41.8526    6.2920 N.ar    1  UNL1       -0.1527
     13 N           8.6025   41.5569    8.7798 N.ar    1  UNL1       -0.2268
     14 C          14.0245   43.0271    6.9294 C.2     1  UNL1        0.2683
     15 N          13.2212   41.9320    7.3848 N.am    1  UNL1       -0.2631
     16 O          13.5167   43.9440    6.2287 O.2     1  UNL1       -0.2681
     17 H          13.6964   41.1320    7.7063 H       1  UNL1        0.1567
     18 C          15.4627   43.0479    7.2368 C.ar    1  UNL1        0.1348
     19 C          17.6004   44.0459    6.9241 C.ar    1  UNL1        0.0990
     20 C          18.1865   43.1190    7.7883 C.ar    1  UNL1        0.0207
     21 C          17.3869   42.1419    8.3824 C.ar    1  UNL1        0.0033
     22 C          16.0188   42.1021    8.1085 C.ar    1  UNL1        0.0238
     23 N          16.2654   43.9914    6.6691 N.ar    1  UNL1       -0.2392
     24 C           8.6306   41.6819    5.7522 C.3     1  UNL1        0.1292
     25 C           7.3370   41.9609    6.4991 C.3     1  UNL1        0.0264
     26 C           6.3644   44.0514    7.4459 C.3     1  UNL1        0.0001
     27 C           6.8325   43.3568    6.1810 C.3     1  UNL1        0.0021
@<TRIPOS>BOND
     1    26    27    1
     2    27    25    1
     3    25    24    1
     4    24    11    1
     5     1    15    1
     6     1     2   ar
     7    14    18    1
     8    19    23   ar
     9    20    21   ar
    10    22    18   ar
    11     3     4   ar
    12     5     6   ar
    13     7     8   ar
    14     9    13   ar
    15     9     4   ar
    16    10    11   ar
    17    10     2   ar
    18    11    12   ar
    19    15    14   am
    20     1    12   ar
    21    14    16    2
    22    18    23   ar
    23    19    20   ar
    24    21    22   ar
    25     2     3   ar
    26     4     5   ar
    27     6     7   ar
    28     8     9   ar
    29    10    13   ar
    30    15    17    1
@<TRIPOS>MOLECULE
MolPort-002-625-187 9359837 PubChem-2044515 ZINC000009359837 ZINC09359837
 27 30 0 0 0
SMALL
GASTEIGER

@<TRIPOS>ATOM
      1 C          11.8896   41.1315    7.1199 C.ar    1  UNL1        0.1571
      2 C          10.8302   41.3068    7.9967 C.ar    1  UNL1        0.0689
      3 C          10.7243   41.7253    9.3193 C.ar    1  UNL1        0.0074
      4 C           9.4398   41.7146    9.8902 C.ar    1  UNL1        0.0179
      5 C           9.2511   42.1342   11.2088 C.ar    1  UNL1        0.0015
      6 C           7.9704   42.1180   11.7702 C.ar    1  UNL1        0.0001
      7 C           6.8746   41.6813   11.0179 C.ar    1  UNL1        0.0015
      8 C           7.0486   41.2563    9.6969 C.ar    1  UNL1        0.0192
      9 C           8.3210   41.2679    9.1206 C.ar    1  UNL1        0.0829
     10 C           9.7397   40.8751    7.2997 C.ar    1  UNL1        0.1621
     11 N          10.1119   40.4483    6.0834 N.ar    1  UNL1       -0.2329
     12 N          11.4277   40.5932    5.9640 N.ar    1  UNL1       -0.1527
     13 N           8.4923   40.8442    7.8325 N.ar    1  UNL1       -0.2268
     14 C          14.0894   42.3778    6.7694 C.2     1  UNL1        0.2683
     15 N          13.2820   41.3584    7.3701 N.am    1  UNL1       -0.2631
     16 O          13.6965   42.9748    5.7307 O.2     1  UNL1       -0.2681
     17 H          13.7242   40.7588    8.0137 H       1  UNL1        0.1567
     18 C          15.4096   42.6866    7.3396 C.ar    1  UNL1        0.1348
     19 C          17.2845   44.1465    7.4675 C.ar    1  UNL1        0.0990
     20 C          17.9079   43.3046    8.3905 C.ar    1  UNL1        0.0207
     21 C          17.2616   42.1338    8.7887 C.ar    1  UNL1        0.0033
     22 C          16.0072   41.8192    8.2636 C.ar    1  UNL1        0.0238
     23 N          16.0618   43.8233    6.9667 N.ar    1  UNL1       -0.2392
     24 C           9.2431   39.9070    5.0502 C.3     1  UNL1        0.1292
     25 C          10.0371   39.6598    3.7783 C.3     1  UNL1        0.0264
     26 C          10.0149   37.2012    3.3688 C.3     1  UNL1        0.0001
     27 C           9.4109   38.5356    2.9733 C.3     1  UNL1        0.0021
@<TRIPOS>BOND
     1    26    27    1
     2    27    25    1
     3    25    24    1
     4    24    11    1
     5     1    15    1
     6     1     2   ar
     7    14    18    1
     8    19    23   ar
     9    20    21   ar
    10    22    18   ar
    11     3     4   ar
    12     5     6   ar
    13     7     8   ar
    14     9    13   ar
    15     9     4   ar
    16    10    11   ar
    17    10     2   ar
    18    11    12   ar
    19    15    14   am
    20     1    12   ar
    21    14    16    2
    22    18    23   ar
    23    19    20   ar
    24    21    22   ar
    25     2     3   ar
    26     4     5   ar
    27     6     7   ar
    28     8     9   ar
    29    10    13   ar
    30    15    17    1
@<TRIPOS>MOLECULE
MolPort-002-625-187 9359837 PubChem-2044515 ZINC000009359837 ZINC09359837
 27 30 0 0 0
SMALL
GASTEIGER

@<TRIPOS>ATOM
      1 C          12.1616   41.4013    8.2225 C.ar    1  UNL1        0.1571
      2 C          12.2164   40.1239    8.7584 C.ar    1  UNL1        0.0689
      3 C          13.2449   39.2232    9.0165 C.ar    1  UNL1        0.0074
      4 C          12.8780   37.9668    9.5289 C.ar    1  UNL1        0.0179
      5 C          13.8551   37.0143    9.8265 C.ar    1  UNL1        0.0015
      6 C          13.4816   35.7656   10.3334 C.ar    1  UNL1        0.0001
      7 C          12.1318   35.4632   10.5431 C.ar    1  UNL1        0.0015
      8 C          11.1421   36.4062   10.2478 C.ar    1  UNL1        0.0192
      9 C          11.4984   37.6588    9.7424 C.ar    1  UNL1        0.0829
     10 C          10.9103   39.7871    8.9634 C.ar    1  UNL1        0.1621
     11 N          10.1103   40.7869    8.5629 N.ar    1  UNL1       -0.2329
     12 N          10.8647   41.7784    8.0999 N.ar    1  UNL1       -0.1527
     13 N          10.5306   38.5771    9.4455 N.ar    1  UNL1       -0.2268
     14 C          14.6366   42.0045    8.0622 C.2     1  UNL1        0.2683
     15 N          13.2521   42.2027    7.7522 N.am    1  UNL1       -0.2631
     16 O          14.9759   41.2740    9.0322 O.2     1  UNL1       -0.2681
     17 H          13.0298   42.9586    7.1619 H       1  UNL1        0.1567
     18 C          15.6630   42.7052    7.2756 C.ar    1  UNL1        0.1348
     19 C          16.2244   44.0530    5.3963 C.ar    1  UNL1        0.0990
     20 C          17.5727   44.0393    5.7587 C.ar    1  UNL1        0.0207
     21 C          17.9631   43.3421    6.9025 C.ar    1  UNL1        0.0033
     22 C          17.0079   42.6706    7.6673 C.ar    1  UNL1        0.0238
     23 N          15.3078   43.3927    6.1541 N.ar    1  UNL1       -0.2392
     24 C           8.6567   40.8071    8.6098 C.3     1  UNL1        0.1292
     25 C           8.1780   41.9994    9.4215 C.3     1  UNL1        0.0264
     26 C           7.7728   41.6775   11.8597 C.3     1  UNL1        0.0001
     27 C           7.1744   41.5569   10.4708 C.3     1  UNL1        0.0021
@<TRIPOS>BOND
     1    26    27    1
     2    27    25    1
     3    25    24    1
     4    24    11    1
     5     1    15    1
     6     1     2   ar
     7    14    18    1
     8    19    23   ar
     9    20    21   ar
    10    22    18   ar
    11     3     4   ar
    12     5     6   ar
    13     7     8   ar
    14     9    13   ar
    15     9     4   ar
    16    10    11   ar
    17    10     2   ar
    18    11    12   ar
    19    15    14   am
    20     1    12   ar
    21    14    16    2
    22    18    23   ar
    23    19    20   ar
    24    21    22   ar
    25     2     3   ar
    26     4     5   ar
    27     6     7   ar
    28     8     9   ar
    29    10    13   ar
    30    15    17    1
@<TRIPOS>MOLECULE
MolPort-002-625-187 9359837 PubChem-2044515 ZINC000009359837 ZINC09359837
 27 30 0 0 0
SMALL
GASTEIGER

@<TRIPOS>ATOM
      1 C          12.0684   42.1496    8.1660 C.ar    1  UNL1        0.1571
      2 C          11.4009   41.4032    7.2072 C.ar    1  UNL1        0.0689
      3 C          11.7085   40.9833    5.9170 C.ar    1  UNL1        0.0074
      4 C          10.7149   40.2685    5.2257 C.ar    1  UNL1        0.0179
      5 C          10.9543   39.8015    3.9314 C.ar    1  UNL1        0.0015
      6 C           9.9597   39.0936    3.2494 C.ar    1  UNL1        0.0001
      7 C           8.7227   38.8511    3.8565 C.ar    1  UNL1        0.0015
      8 C           8.4678   39.3144    5.1512 C.ar    1  UNL1        0.0192
      9 C           9.4512   40.0218    5.8468 C.ar    1  UNL1        0.0829
     10 C          10.1778   41.1590    7.7602 C.ar    1  UNL1        0.1621
     11 N          10.0982   41.7335    8.9700 N.ar    1  UNL1       -0.2329
     12 N          11.2475   42.3499    9.2267 N.ar    1  UNL1       -0.1527
     13 N           9.1990   40.4822    7.1087 N.ar    1  UNL1       -0.2268
     14 C          14.6132   42.0246    8.0136 C.2     1  UNL1        0.2683
     15 N          13.3717   42.7370    8.0697 N.am    1  UNL1       -0.2631
     16 O          14.6697   40.8115    8.3521 O.2     1  UNL1       -0.2681
     17 H          13.4182   43.7199    8.0392 H       1  UNL1        0.1567
     18 C          15.8378   42.7333    7.6116 C.ar    1  UNL1        0.1348
     19 C          16.9515   44.1692    6.0750 C.ar    1  UNL1        0.0990
     20 C          18.1325   44.0854    6.8151 C.ar    1  UNL1        0.0207
     21 C          18.1561   43.3078    7.9734 C.ar    1  UNL1        0.0033
     22 C          17.0065   42.6270    8.3773 C.ar    1  UNL1        0.0238
     23 N          15.8410   43.4986    6.4842 N.ar    1  UNL1       -0.2392
     24 C           8.9556   41.7076    9.8695 C.3     1  UNL1        0.1292
     25 C           9.4097   41.3688   11.2796 C.3     1  UNL1        0.0264
     26 C           6.9325   41.4979   11.5238 C.3     1  UNL1        0.0001
     27 C           8.2599   41.5250   12.2581 C.3     1  UNL1        0.0021
@<TRIPOS>BOND
     1    26    27    1
     2    27    25    1
     3    25    24    1
     4    24    11    1
     5     1    15    1
     6     1     2   ar
     7    14    18    1
     8    19    23   ar
     9    20    21   ar
    10    22    18   ar
    11     3     4   ar
    12     5     6   ar
    13     7     8   ar
    14     9    13   ar
    15     9     4   ar
    16    10    11   ar
    17    10     2   ar
    18    11    12   ar
    19    15    14   am
    20     1    12   ar
    21    14    16    2
    22    18    23   ar
    23    19    20   ar
    24    21    22   ar
    25     2     3   ar
    26     4     5   ar
    27     6     7   ar
    28     8     9   ar
    29    10    13   ar
    30    15    17    1
@<TRIPOS>MOLECULE
MolPort-002-625-187 9359837 PubChem-2044515 ZINC000009359837 ZINC09359837
 27 30 0 0 0
SMALL
GASTEIGER

@<TRIPOS>ATOM
      1 C          12.3796   41.8707    7.6164 C.ar    1  UNL1        0.1571
      2 C          13.2609   41.1697    8.4250 C.ar    1  UNL1        0.0689
      3 C          13.1083   40.2808    9.4844 C.ar    1  UNL1        0.0074
      4 C          14.2832   39.8148   10.0994 C.ar    1  UNL1        0.0179
      5 C          14.2119   38.9093   11.1603 C.ar    1  UNL1        0.0015
      6 C          15.3853   38.4525   11.7686 C.ar    1  UNL1        0.0001
      7 C          16.6333   38.8994   11.3210 C.ar    1  UNL1        0.0015
      8 C          16.7202   39.8077   10.2611 C.ar    1  UNL1        0.0192
      9 C          15.5577   40.2725    9.6415 C.ar    1  UNL1        0.0829
     10 C          14.4951   41.5928    8.0260 C.ar    1  UNL1        0.1621
     11 N          14.3740   42.5050    7.0496 N.ar    1  UNL1       -0.2329
     12 N          13.0826   42.6894    6.7951 N.ar    1  UNL1       -0.1527
     13 N          15.6424   41.1668    8.6115 N.ar    1  UNL1       -0.2268
     14 C          10.0816   41.1408    6.7788 C.2     1  UNL1        0.2683
     15 N          10.9477   41.8603    7.6643 N.am    1  UNL1       -0.2631
     16 O          10.5172   40.6913    5.6843 O.2     1  UNL1       -0.2681
     17 H          10.5199   42.3968    8.3703 H       1  UNL1        0.1567
     18 C           8.6622   40.9770    7.1277 C.ar    1  UNL1        0.1348
     19 C           6.9002   41.2818    8.6980 C.ar    1  UNL1        0.0990
     20 C           5.9879   40.6827    7.8273 C.ar    1  UNL1        0.0207
     21 C           6.4313   40.2251    6.5860 C.ar    1  UNL1        0.0033
     22 C           7.7732   40.3705    6.2303 C.ar    1  UNL1        0.0238
     23 N           8.2041   41.4148    8.3340 N.ar    1  UNL1       -0.2392
     24 C          15.4574   43.1972    6.3696 C.3     1  UNL1        0.1292
     25 C          16.1775   44.1187    7.3400 C.3     1  UNL1        0.0264
     26 C          17.8992   43.7309    5.5798 C.3     1  UNL1        0.0001
     27 C          17.6566   44.1875    7.0061 C.3     1  UNL1        0.0021
@<TRIPOS>BOND
     1    26    27    1
     2    27    25    1
     3    25    24    1
     4    24    11    1
     5     1    15    1
     6     1     2   ar
     7    14    18    1
     8    19    23   ar
     9    20    21   ar
    10    22    18   ar
    11     3     4   ar
    12     5     6   ar
    13     7     8   ar
    14     9    13   ar
    15     9     4   ar
    16    10    11   ar
    17    10     2   ar
    18    11    12   ar
    19    15    14   am
    20     1    12   ar
    21    14    16    2
    22    18    23   ar
    23    19    20   ar
    24    21    22   ar
    25     2     3   ar
    26     4     5   ar
    27     6     7   ar
    28     8     9   ar
    29    10    13   ar
    30    15    17    1
@<TRIPOS>MOLECULE
MolPort-002-625-187 9359837 PubChem-2044515 ZINC000009359837 ZINC09359837
 27 30 0 0 0
SMALL
GASTEIGER

@<TRIPOS>ATOM
      1 C          12.7340   40.5061    8.4476 C.ar    1  UNL1        0.1571
      2 C          13.8147   41.2951    8.0848 C.ar    1  UNL1        0.0689
      3 C          14.0206   42.2731    7.1170 C.ar    1  UNL1        0.0074
      4 C          15.3137   42.8165    7.0252 C.ar    1  UNL1        0.0179
      5 C          15.5946   43.8129    6.0877 C.ar    1  UNL1        0.0015
      6 C          16.8843   44.3464    6.0009 C.ar    1  UNL1        0.0001
      7 C          17.8979   43.8859    6.8483 C.ar    1  UNL1        0.0015
      8 C          17.6320   42.8872    7.7905 C.ar    1  UNL1        0.0192
      9 C          16.3487   42.3449    7.8912 C.ar    1  UNL1        0.0829
     10 C          14.8323   40.8624    8.8840 C.ar    1  UNL1        0.1621
     11 N          14.4049   39.8632    9.6707 N.ar    1  UNL1       -0.2329
     12 N          13.1231   39.6306    9.4073 N.ar    1  UNL1       -0.1527
     13 N          16.0911   41.3627    8.8061 N.ar    1  UNL1       -0.2268
     14 C          10.2229   40.9617    8.4900 C.2     1  UNL1        0.2683
     15 N          11.4243   40.4920    7.8670 N.am    1  UNL1       -0.2631
     16 O          10.1814   41.1521    9.7356 O.2     1  UNL1       -0.2681
     17 H          11.3425   40.1260    6.9567 H       1  UNL1        0.1567
     18 C           9.0164   41.1677    7.6744 C.ar    1  UNL1        0.1348
     19 C           7.4311   42.6645    6.7205 C.ar    1  UNL1        0.0990
     20 C           6.7370   41.5996    6.1427 C.ar    1  UNL1        0.0207
     21 C           7.1994   40.2981    6.3410 C.ar    1  UNL1        0.0033
     22 C           8.3433   40.0763    7.1094 C.ar    1  UNL1        0.0238
     23 N           8.5440   42.4288    7.4662 N.ar    1  UNL1       -0.2392
     24 C          15.1924   39.1341   10.6524 C.3     1  UNL1        0.1292
     25 C          14.2862   38.5762   11.7372 C.3     1  UNL1        0.0264
     26 C          13.1249   36.5200   10.9395 C.3     1  UNL1        0.0001
     27 C          14.3102   37.0586   11.7185 C.3     1  UNL1        0.0021
@<TRIPOS>BOND
     1    26    27    1
     2    27    25    1
     3    25    24    1
     4    24    11    1
     5     1    15    1
     6     1     2   ar
     7    14    18    1
     8    19    23   ar
     9    20    21   ar
    10    22    18   ar
    11     3     4   ar
    12     5     6   ar
    13     7     8   ar
    14     9    13   ar
    15     9     4   ar
    16    10    11   ar
    17    10     2   ar
    18    11    12   ar
    19    15    14   am
    20     1    12   ar
    21    14    16    2
    22    18    23   ar
    23    19    20   ar
    24    21    22   ar
    25     2     3   ar
    26     4     5   ar
    27     6     7   ar
    28     8     9   ar
    29    10    13   ar
    30    15    17    1
