@<TRIPOS>MOLECULE
MolPort-039-210-396 CSSS03436989980 MCULE-9187658324 PubChem-121016984
 26 29 0 0 0
SMALL
GASTEIGER

@<TRIPOS>ATOM
      1 O           6.8962   41.5580   11.9872 O.2     1  UNL1       -0.2744
      2 C           6.6811   41.6400   10.7467 C.2     1  UNL1        0.2295
      3 N           7.7596   41.4766    9.8138 N.am    1  UNL1       -0.2812
      4 H           7.5454   41.5633    8.8568 H       1  UNL1        0.1550
      5 C           9.1203   41.1981   10.1587 C.ar    1  UNL1        0.0905
      6 C           9.9108   40.2548    9.5430 C.ar    1  UNL1        0.1114
      7 C           9.8728   41.7980   11.1520 C.ar    1  UNL1        0.1363
      8 N          11.1006   40.3135   10.1664 N.ar    1  UNL1       -0.2456
      9 N          11.0911   41.2228   11.1286 N.ar    1  UNL1       -0.1662
     10 C          12.2437   39.4685    9.8647 C.3     1  UNL1        0.1569
     11 O          13.7050   39.1950   11.8244 O.3     1  UNL1       -0.3542
     12 C          13.4748   39.9413   10.6407 C.3     1  UNL1        0.1395
     13 C          14.7260   40.0199    9.7569 C.3     1  UNL1        0.0317
     14 C          15.2667   38.6243    9.4651 C.3     1  UNL1        0.0051
     15 C          15.4046   37.8433   10.7627 C.3     1  UNL1        0.0322
     16 C          14.0646   37.8702   11.4904 C.3     1  UNL1        0.1421
     17 C           5.2797   41.9187   10.2586 C.3     1  UNL1        0.0934
     18 C           4.7105   40.6399    9.6447 C.3     1  UNL1        0.0132
     19 C           3.3401   40.4337   10.2519 C.3     1  UNL1        0.0008
     20 C           3.4008   41.1114   11.5980 C.3     1  UNL1        0.0008
     21 C           4.3404   42.2831   11.4094 C.3     1  UNL1        0.0132
     22 C           5.2992   43.0565    9.2642 C.ar    1  UNL1        0.0149
     23 C           4.1749   43.7139    8.7764 C.ar    1  UNL1        0.0031
     24 C           4.4846   44.7408    7.8720 C.ar    1  UNL1        0.0072
     25 C           5.8466   44.9102    7.6354 C.ar    1  UNL1        0.0351
     26 S           6.6558   43.7672    8.5667 S.2     1  UNL1       -0.0903
@<TRIPOS>BOND
     1     2     3   am
     2     6     8   ar
     3    10     8    1
     4    12    10    1
     5    12    13    1
     6    12    11    1
     7    13    14    1
     8    14    15    1
     9    15    16    1
    10    16    11    1
    11     7     5   ar
    12    17     2    1
    13    17    18    1
    14    17    22    1
    15    18    19    1
    16    19    20    1
    17    20    21    1
    18    21    17    1
    19    22    26   ar
    20    23    24   ar
    21    25    26   ar
    22     3     5    1
    23     8     9   ar
    24     2     1    2
    25     5     6   ar
    26     7     9   ar
    27    22    23   ar
    28    24    25   ar
    29     3     4    1
@<TRIPOS>MOLECULE
MolPort-039-210-396 CSSS03436989980 MCULE-9187658324 PubChem-121016984
 26 29 0 0 0
SMALL
GASTEIGER

@<TRIPOS>ATOM
      1 O           7.3776   42.1058    9.0395 O.2     1  UNL1       -0.2744
      2 C           6.6338   41.8950   10.0366 C.2     1  UNL1        0.2295
      3 N           7.2034   41.4916   11.2908 N.am    1  UNL1       -0.2812
      4 H           6.5819   41.3250   12.0359 H       1  UNL1        0.1550
      5 C           8.5995   41.3113   11.5486 C.ar    1  UNL1        0.0905
      6 C           9.5593   41.1155   10.5820 C.ar    1  UNL1        0.1114
      7 C           9.2285   41.2898   12.7802 C.ar    1  UNL1        0.1363
      8 N          10.7227   40.9892   11.2441 N.ar    1  UNL1       -0.2456
      9 N          10.5406   41.0854   12.5519 N.ar    1  UNL1       -0.1662
     10 C          12.0127   40.7377   10.6244 C.3     1  UNL1        0.1569
     11 O          11.4374   41.3107    8.3025 O.3     1  UNL1       -0.3542
     12 C          11.8270   40.2672    9.1802 C.3     1  UNL1        0.1395
     13 C          13.0469   39.4992    8.6562 C.3     1  UNL1        0.0317
     14 C          14.1938   40.4561    8.3497 C.3     1  UNL1        0.0051
     15 C          13.6926   41.6003    7.4822 C.3     1  UNL1        0.0322
     16 C          12.4920   42.2414    8.1704 C.3     1  UNL1        0.1421
     17 C           5.1406   42.0651    9.8912 C.3     1  UNL1        0.0934
     18 C           4.5531   40.7749    9.3199 C.3     1  UNL1        0.0132
     19 C           3.3763   40.4031   10.1951 C.3     1  UNL1        0.0008
     20 C           3.6840   41.0049   11.5435 C.3     1  UNL1        0.0008
     21 C           4.4588   42.2706   11.2448 C.3     1  UNL1        0.0132
     22 C           4.8431   43.2548    9.0080 C.ar    1  UNL1        0.0149
     23 C           3.5780   43.7836    8.7752 C.ar    1  UNL1        0.0031
     24 C           3.5934   44.8972    7.9219 C.ar    1  UNL1        0.0072
     25 C           4.8602   45.2632    7.4734 C.ar    1  UNL1        0.0351
     26 S           5.9561   44.1840    8.1539 S.2     1  UNL1       -0.0903
@<TRIPOS>BOND
     1     2     3   am
     2     6     8   ar
     3    10     8    1
     4    12    10    1
     5    12    13    1
     6    12    11    1
     7    13    14    1
     8    14    15    1
     9    15    16    1
    10    16    11    1
    11     7     5   ar
    12    17     2    1
    13    17    18    1
    14    17    22    1
    15    18    19    1
    16    19    20    1
    17    20    21    1
    18    21    17    1
    19    22    26   ar
    20    23    24   ar
    21    25    26   ar
    22     3     5    1
    23     8     9   ar
    24     2     1    2
    25     5     6   ar
    26     7     9   ar
    27    22    23   ar
    28    24    25   ar
    29     3     4    1
@<TRIPOS>MOLECULE
MolPort-039-210-396 CSSS03436989980 MCULE-9187658324 PubChem-121016984
 26 29 0 0 0
SMALL
GASTEIGER

@<TRIPOS>ATOM
      1 O           9.6264   43.4683    9.3787 O.2     1  UNL1       -0.2744
      2 C           9.1261   42.6688    8.5405 C.2     1  UNL1        0.2295
      3 N           9.9736   41.7929    7.7824 N.am    1  UNL1       -0.2812
      4 H           9.5386   41.1971    7.1304 H       1  UNL1        0.1550
      5 C          11.3980   41.7132    7.8951 C.ar    1  UNL1        0.0905
      6 C          12.2896   42.2310    6.9836 C.ar    1  UNL1        0.1114
      7 C          12.1264   41.1107    8.9046 C.ar    1  UNL1        0.1363
      8 N          13.5113   41.9373    7.4619 N.ar    1  UNL1       -0.2456
      9 N          13.4298   41.2669    8.6006 N.ar    1  UNL1       -0.1662
     10 C          14.7657   42.2677    6.8070 C.3     1  UNL1        0.1569
     11 O          16.2782   43.4430    8.3502 O.3     1  UNL1       -0.3542
     12 C          15.3051   43.6004    7.3308 C.3     1  UNL1        0.1395
     13 C          15.7966   44.5144    6.2014 C.3     1  UNL1        0.0317
     14 C          17.1327   44.0231    5.6550 C.3     1  UNL1        0.0051
     15 C          18.1027   43.7856    6.8020 C.3     1  UNL1        0.0322
     16 C          17.4424   42.8516    7.8109 C.3     1  UNL1        0.1421
     17 C           7.6296   42.6512    8.3412 C.3     1  UNL1        0.0934
     18 C           7.1537   44.0783    8.0708 C.3     1  UNL1        0.0132
     19 C           6.2711   44.0217    6.8432 C.3     1  UNL1        0.0008
     20 C           6.7586   42.8260    6.0637 C.3     1  UNL1        0.0008
     21 C           7.2312   41.8379    7.1086 C.3     1  UNL1        0.0132
     22 C           6.9567   42.0577    9.5572 C.ar    1  UNL1        0.0149
     23 C           7.5803   41.8029   10.7739 C.ar    1  UNL1        0.0031
     24 C           6.7149   41.2593   11.7350 C.ar    1  UNL1        0.0072
     25 C           5.4051   41.0801   11.2966 C.ar    1  UNL1        0.0351
     26 S           5.3415   41.6079    9.7010 S.2     1  UNL1       -0.0903
@<TRIPOS>BOND
     1     2     3   am
     2     6     8   ar
     3    10     8    1
     4    12    10    1
     5    12    13    1
     6    12    11    1
     7    13    14    1
     8    14    15    1
     9    15    16    1
    10    16    11    1
    11     7     5   ar
    12    17     2    1
    13    17    18    1
    14    17    22    1
    15    18    19    1
    16    19    20    1
    17    20    21    1
    18    21    17    1
    19    22    26   ar
    20    23    24   ar
    21    25    26   ar
    22     3     5    1
    23     8     9   ar
    24     2     1    2
    25     5     6   ar
    26     7     9   ar
    27    22    23   ar
    28    24    25   ar
    29     3     4    1
@<TRIPOS>MOLECULE
MolPort-039-210-396 CSSS03436989980 MCULE-9187658324 PubChem-121016984
 26 29 0 0 0
SMALL
GASTEIGER

@<TRIPOS>ATOM
      1 O           9.9117   43.1115    9.5950 O.2     1  UNL1       -0.2744
      2 C           9.5135   42.3932    8.6372 C.2     1  UNL1        0.2295
      3 N          10.4557   41.6446    7.8548 N.am    1  UNL1       -0.2812
      4 H          10.0990   41.1099    7.1091 H       1  UNL1        0.1550
      5 C          11.8704   41.6105    8.0684 C.ar    1  UNL1        0.0905
      6 C          12.8110   42.0926    7.1872 C.ar    1  UNL1        0.1114
      7 C          12.5407   41.0935    9.1621 C.ar    1  UNL1        0.1363
      8 N          14.0031   41.8630    7.7650 N.ar    1  UNL1       -0.2456
      9 N          13.8581   41.2648    8.9371 N.ar    1  UNL1       -0.1662
     10 C          15.2920   42.1843    7.1760 C.3     1  UNL1        0.1569
     11 O          16.3213   44.0974    8.3297 O.3     1  UNL1       -0.3542
     12 C          15.5360   43.6942    7.2198 C.3     1  UNL1        0.1395
     13 C          16.0906   44.2336    5.8954 C.3     1  UNL1        0.0317
     14 C          17.5588   43.8551    5.7334 C.3     1  UNL1        0.0051
     15 C          18.3292   44.2288    6.9902 C.3     1  UNL1        0.0322
     16 C          17.6349   43.5959    8.1916 C.3     1  UNL1        0.1421
     17 C           8.0380   42.3377    8.3214 C.3     1  UNL1        0.0934
     18 C           7.2537   42.3818    9.6325 C.3     1  UNL1        0.0132
     19 C           6.1867   43.4422    9.4703 C.3     1  UNL1        0.0008
     20 C           6.7430   44.4069    8.4530 C.3     1  UNL1        0.0008
     21 C           7.5829   43.5593    7.5215 C.3     1  UNL1        0.0132
     22 C           7.7298   41.0899    7.5265 C.ar    1  UNL1        0.0149
     23 C           8.4275   39.8901    7.6155 C.ar    1  UNL1        0.0031
     24 C           7.9193   38.8917    6.7710 C.ar    1  UNL1        0.0072
     25 C           6.8204   39.2835    6.0102 C.ar    1  UNL1        0.0351
     26 S           6.4922   40.8852    6.4047 S.2     1  UNL1       -0.0903
@<TRIPOS>BOND
     1     2     3   am
     2     6     8   ar
     3    10     8    1
     4    12    10    1
     5    12    13    1
     6    12    11    1
     7    13    14    1
     8    14    15    1
     9    15    16    1
    10    16    11    1
    11     7     5   ar
    12    17     2    1
    13    17    18    1
    14    17    22    1
    15    18    19    1
    16    19    20    1
    17    20    21    1
    18    21    17    1
    19    22    26   ar
    20    23    24   ar
    21    25    26   ar
    22     3     5    1
    23     8     9   ar
    24     2     1    2
    25     5     6   ar
    26     7     9   ar
    27    22    23   ar
    28    24    25   ar
    29     3     4    1
@<TRIPOS>MOLECULE
MolPort-039-210-396 CSSS03436989980 MCULE-9187658324 PubChem-121016984
 26 29 0 0 0
SMALL
GASTEIGER

@<TRIPOS>ATOM
      1 O          10.2608   39.4479   10.2973 O.2     1  UNL1       -0.2744
      2 C          10.9420   39.4303    9.2354 C.2     1  UNL1        0.2295
      3 N          10.3213   39.7190    7.9738 N.am    1  UNL1       -0.2812
      4 H          10.8903   39.6790    7.1714 H       1  UNL1        0.1550
      5 C           8.9443   40.0600    7.7849 C.ar    1  UNL1        0.0905
      6 C           8.2368   40.9404    8.5710 C.ar    1  UNL1        0.1114
      7 C           8.0869   39.5768    6.8132 C.ar    1  UNL1        0.1363
      8 N           6.9942   40.9692    8.0582 N.ar    1  UNL1       -0.2456
      9 N           6.8890   40.1595    7.0162 N.ar    1  UNL1       -0.1662
     10 C           5.8893   41.7483    8.5907 C.3     1  UNL1        0.1569
     11 O           5.2257   40.6289   10.6781 O.3     1  UNL1       -0.3542
     12 C           4.8956   40.8373    9.3148 C.3     1  UNL1        0.1395
     13 C           3.4443   41.3010    9.1379 C.3     1  UNL1        0.0317
     14 C           3.1642   42.5302    9.9955 C.3     1  UNL1        0.0051
     15 C           3.6232   42.2780   11.4234 C.3     1  UNL1        0.0322
     16 C           5.0834   41.8388   11.3935 C.3     1  UNL1        0.1421
     17 C          12.4124   39.0955    9.3086 C.3     1  UNL1        0.0934
     18 C          13.0745   39.5027    7.9925 C.3     1  UNL1        0.0132
     19 C          14.3052   40.3068    8.3505 C.3     1  UNL1        0.0008
     20 C          14.0001   40.9133    9.6974 C.3     1  UNL1        0.0008
     21 C          13.1233   39.8984   10.3992 C.3     1  UNL1        0.0132
     22 C          12.5899   37.6217    9.5919 C.ar    1  UNL1        0.0149
     23 C          11.6821   36.8226   10.2786 C.ar    1  UNL1        0.0031
     24 C          12.0950   35.4863   10.3882 C.ar    1  UNL1        0.0072
     25 C          13.3237   35.2113    9.7927 C.ar    1  UNL1        0.0351
     26 S          13.8848   36.6515    9.1296 S.2     1  UNL1       -0.0903
@<TRIPOS>BOND
     1     2     3   am
     2     6     8   ar
     3    10     8    1
     4    12    10    1
     5    12    13    1
     6    12    11    1
     7    13    14    1
     8    14    15    1
     9    15    16    1
    10    16    11    1
    11     7     5   ar
    12    17     2    1
    13    17    18    1
    14    17    22    1
    15    18    19    1
    16    19    20    1
    17    20    21    1
    18    21    17    1
    19    22    26   ar
    20    23    24   ar
    21    25    26   ar
    22     3     5    1
    23     8     9   ar
    24     2     1    2
    25     5     6   ar
    26     7     9   ar
    27    22    23   ar
    28    24    25   ar
    29     3     4    1
@<TRIPOS>MOLECULE
MolPort-039-210-396 CSSS03436989980 MCULE-9187658324 PubChem-121016984
 26 29 0 0 0
SMALL
GASTEIGER

@<TRIPOS>ATOM
      1 O           6.7689   40.5001    7.7570 O.2     1  UNL1       -0.2744
      2 C           6.8194   41.1977    8.8071 C.2     1  UNL1        0.2295
      3 N           8.0847   41.5021    9.4124 N.am    1  UNL1       -0.2812
      4 H           8.0725   42.0376   10.2385 H       1  UNL1        0.1550
      5 C           9.3626   41.0922    8.9154 C.ar    1  UNL1        0.0905
      6 C          10.2491   40.2871    9.5934 C.ar    1  UNL1        0.1114
      7 C           9.9360   41.4251    7.7017 C.ar    1  UNL1        0.1363
      8 N          11.3131   40.1530    8.7824 N.ar    1  UNL1       -0.2456
      9 N          11.1433   40.8285    7.6565 N.ar    1  UNL1       -0.1662
     10 C          12.5168   39.4041    9.1014 C.3     1  UNL1        0.1569
     11 O          13.3650   39.8494   11.3670 O.3     1  UNL1       -0.3542
     12 C          13.4354   40.2315   10.0031 C.3     1  UNL1        0.1395
     13 C          14.8799   40.2661    9.4885 C.3     1  UNL1        0.0317
     14 C          15.5773   38.9363    9.7537 C.3     1  UNL1        0.0051
     15 C          15.3883   38.5363   11.2088 C.3     1  UNL1        0.0322
     16 C          13.8966   38.5503   11.5264 C.3     1  UNL1        0.1421
     17 C           5.5344   41.7003    9.4204 C.3     1  UNL1        0.0934
     18 C           4.4665   40.6160    9.2796 C.3     1  UNL1        0.0132
     19 C           3.8311   40.4459   10.6422 C.3     1  UNL1        0.0008
     20 C           4.8949   40.8636   11.6265 C.3     1  UNL1        0.0008
     21 C           5.6820   41.9482   10.9225 C.3     1  UNL1        0.0132
     22 C           5.1156   42.9887    8.7509 C.ar    1  UNL1        0.0149
     23 C           3.8563   43.5707    8.8496 C.ar    1  UNL1        0.0031
     24 C           3.7457   44.7726    8.1345 C.ar    1  UNL1        0.0072
     25 C           4.9067   45.1564    7.4676 C.ar    1  UNL1        0.0351
     26 S           6.0683   43.9814    7.7819 S.2     1  UNL1       -0.0903
@<TRIPOS>BOND
     1     2     3   am
     2     6     8   ar
     3    10     8    1
     4    12    10    1
     5    12    13    1
     6    12    11    1
     7    13    14    1
     8    14    15    1
     9    15    16    1
    10    16    11    1
    11     7     5   ar
    12    17     2    1
    13    17    18    1
    14    17    22    1
    15    18    19    1
    16    19    20    1
    17    20    21    1
    18    21    17    1
    19    22    26   ar
    20    23    24   ar
    21    25    26   ar
    22     3     5    1
    23     8     9   ar
    24     2     1    2
    25     5     6   ar
    26     7     9   ar
    27    22    23   ar
    28    24    25   ar
    29     3     4    1
@<TRIPOS>MOLECULE
MolPort-039-210-396 CSSS03436989980 MCULE-9187658324 PubChem-121016984
 26 29 0 0 0
SMALL
GASTEIGER

@<TRIPOS>ATOM
      1 O          10.9827   38.6810    9.3867 O.2     1  UNL1       -0.2744
      2 C          11.8903   39.1992   10.0937 C.2     1  UNL1        0.2295
      3 N          11.5963   40.3225   10.9375 N.am    1  UNL1       -0.2812
      4 H          12.3400   40.7014   11.4596 H       1  UNL1        0.1550
      5 C          10.3124   40.9377   11.0831 C.ar    1  UNL1        0.0905
      6 C           9.5502   41.4230   10.0452 C.ar    1  UNL1        0.1114
      7 C           9.6200   41.1638   12.2588 C.ar    1  UNL1        0.1363
      8 N           8.4346   41.9152   10.6117 N.ar    1  UNL1       -0.2456
      9 N           8.4645   41.7729   11.9275 N.ar    1  UNL1       -0.1662
     10 C           7.3483   42.5599    9.8934 C.3     1  UNL1        0.1569
     11 O           8.1280   42.9246    7.5891 O.3     1  UNL1       -0.3542
     12 C           7.9030   43.5326    8.8504 C.3     1  UNL1        0.1395
     13 C           7.0564   44.8062    8.7330 C.3     1  UNL1        0.0317
     14 C           5.7569   44.5214    7.9878 C.3     1  UNL1        0.0051
     15 C           6.0573   43.7882    6.6896 C.3     1  UNL1        0.0322
     16 C           6.8933   42.5539    7.0113 C.3     1  UNL1        0.1421
     17 C          13.2867   38.6281   10.0349 C.3     1  UNL1        0.0934
     18 C          13.9964   39.1928    8.8046 C.3     1  UNL1        0.0132
     19 C          15.3446   39.6985    9.2689 C.3     1  UNL1        0.0008
     20 C          15.1531   40.0489   10.7234 C.3     1  UNL1        0.0008
     21 C          14.1275   39.0609   11.2370 C.3     1  UNL1        0.0132
     22 C          13.2230   37.1186   10.0006 C.ar    1  UNL1        0.0149
     23 C          12.3090   36.3389   10.7013 C.ar    1  UNL1        0.0031
     24 C          12.4697   34.9634   10.4767 C.ar    1  UNL1        0.0072
     25 C          13.5028   34.6385    9.6009 C.ar    1  UNL1        0.0351
     26 S          14.2091   36.0844    9.1119 S.2     1  UNL1       -0.0903
@<TRIPOS>BOND
     1     2     3   am
     2     6     8   ar
     3    10     8    1
     4    12    10    1
     5    12    13    1
     6    12    11    1
     7    13    14    1
     8    14    15    1
     9    15    16    1
    10    16    11    1
    11     7     5   ar
    12    17     2    1
    13    17    18    1
    14    17    22    1
    15    18    19    1
    16    19    20    1
    17    20    21    1
    18    21    17    1
    19    22    26   ar
    20    23    24   ar
    21    25    26   ar
    22     3     5    1
    23     8     9   ar
    24     2     1    2
    25     5     6   ar
    26     7     9   ar
    27    22    23   ar
    28    24    25   ar
    29     3     4    1
@<TRIPOS>MOLECULE
MolPort-039-210-396 CSSS03436989980 MCULE-9187658324 PubChem-121016984
 26 29 0 0 0
SMALL
GASTEIGER

@<TRIPOS>ATOM
      1 O           9.9402   41.4157    9.0874 O.2     1  UNL1       -0.2744
      2 C          10.1206   40.9479    7.9296 C.2     1  UNL1        0.2295
      3 N          11.4032   40.4249    7.5533 N.am    1  UNL1       -0.2812
      4 H          11.4996   40.0838    6.6348 H       1  UNL1        0.1550
      5 C          12.5537   40.3577    8.4018 C.ar    1  UNL1        0.0905
      6 C          12.6451   39.5964    9.5446 C.ar    1  UNL1        0.1114
      7 C          13.7511   41.0319    8.2453 C.ar    1  UNL1        0.1363
      8 N          13.8761   39.8230   10.0357 N.ar    1  UNL1       -0.2456
      9 N          14.5430   40.6783    9.2766 N.ar    1  UNL1       -0.1662
     10 C          14.4056   39.2462   11.2598 C.3     1  UNL1        0.1569
     11 O          15.0681   36.9226   11.7209 O.3     1  UNL1       -0.3542
     12 C          15.3351   38.0741   10.9375 C.3     1  UNL1        0.1395
     13 C          15.3716   37.7547    9.4377 C.3     1  UNL1        0.0317
     14 C          14.0917   37.0462    9.0075 C.3     1  UNL1        0.0051
     15 C          13.8108   35.8781    9.9400 C.3     1  UNL1        0.0322
     16 C          13.8045   36.3933   11.3755 C.3     1  UNL1        0.1421
     17 C           8.9750   40.9523    6.9462 C.3     1  UNL1        0.0934
     18 C           7.7565   40.3106    7.6094 C.3     1  UNL1        0.0132
     19 C           6.5890   41.2454    7.3807 C.3     1  UNL1        0.0008
     20 C           7.2050   42.6141    7.2318 C.3     1  UNL1        0.0008
     21 C           8.5491   42.3745    6.5781 C.3     1  UNL1        0.0132
     22 C           9.3769   40.2206    5.6865 C.ar    1  UNL1        0.0149
     23 C           8.7693   39.0676    5.2009 C.ar    1  UNL1        0.0031
     24 C           9.3375   38.6060    4.0041 C.ar    1  UNL1        0.0072
     25 C          10.3920   39.3819    3.5289 C.ar    1  UNL1        0.0351
     26 S          10.6041   40.6468    4.6169 S.2     1  UNL1       -0.0903
@<TRIPOS>BOND
     1     2     3   am
     2     6     8   ar
     3    10     8    1
     4    12    10    1
     5    12    13    1
     6    12    11    1
     7    13    14    1
     8    14    15    1
     9    15    16    1
    10    16    11    1
    11     7     5   ar
    12    17     2    1
    13    17    18    1
    14    17    22    1
    15    18    19    1
    16    19    20    1
    17    20    21    1
    18    21    17    1
    19    22    26   ar
    20    23    24   ar
    21    25    26   ar
    22     3     5    1
    23     8     9   ar
    24     2     1    2
    25     5     6   ar
    26     7     9   ar
    27    22    23   ar
    28    24    25   ar
    29     3     4    1
@<TRIPOS>MOLECULE
MolPort-039-210-396 CSSS03436989980 MCULE-9187658324 PubChem-121016984
 26 29 0 0 0
SMALL
GASTEIGER

@<TRIPOS>ATOM
      1 O          10.3270   40.5067    9.5225 O.2     1  UNL1       -0.2744
      2 C          10.0489   39.9326    8.4339 C.2     1  UNL1        0.2295
      3 N          10.5536   38.6169    8.1612 N.am    1  UNL1       -0.2812
      4 H          10.3215   38.2157    7.2926 H       1  UNL1        0.1550
      5 C          11.3661   37.8396    9.0464 C.ar    1  UNL1        0.0905
      6 C          12.7411   37.8760    9.0884 C.ar    1  UNL1        0.1114
      7 C          10.9378   36.9250    9.9913 C.ar    1  UNL1        0.1363
      8 N          13.0997   37.0019   10.0450 N.ar    1  UNL1       -0.2456
      9 N          12.0384   36.4251   10.5868 N.ar    1  UNL1       -0.1662
     10 C          14.4685   36.6882   10.4185 C.3     1  UNL1        0.1569
     11 O          16.2030   37.2119   12.0822 O.3     1  UNL1       -0.3542
     12 C          14.8861   37.5036   11.6442 C.3     1  UNL1        0.1395
     13 C          14.6650   39.0084   11.4459 C.3     1  UNL1        0.0317
     14 C          15.7258   39.5900   10.5177 C.3     1  UNL1        0.0051
     15 C          17.1092   39.1668   10.9867 C.3     1  UNL1        0.0322
     16 C          17.1350   37.6471   11.1138 C.3     1  UNL1        0.1421
     17 C           9.1867   40.6489    7.4223 C.3     1  UNL1        0.0934
     18 C           7.7229   40.3003    7.6906 C.3     1  UNL1        0.0132
     19 C           6.9586   41.6058    7.7177 C.3     1  UNL1        0.0008
     20 C           7.9688   42.6438    8.1385 C.3     1  UNL1        0.0008
     21 C           9.2871   42.1683    7.5663 C.3     1  UNL1        0.0132
     22 C           9.6071   40.2613    6.0234 C.ar    1  UNL1        0.0149
     23 C          10.7539   40.7109    5.3777 C.ar    1  UNL1        0.0031
     24 C          10.9045   40.1817    4.0871 C.ar    1  UNL1        0.0072
     25 C           9.8888   39.3118    3.6979 C.ar    1  UNL1        0.0351
     26 S           8.8058   39.2113    4.9807 S.2     1  UNL1       -0.0903
@<TRIPOS>BOND
     1     2     3   am
     2     6     8   ar
     3    10     8    1
     4    12    10    1
     5    12    13    1
     6    12    11    1
     7    13    14    1
     8    14    15    1
     9    15    16    1
    10    16    11    1
    11     7     5   ar
    12    17     2    1
    13    17    18    1
    14    17    22    1
    15    18    19    1
    16    19    20    1
    17    20    21    1
    18    21    17    1
    19    22    26   ar
    20    23    24   ar
    21    25    26   ar
    22     3     5    1
    23     8     9   ar
    24     2     1    2
    25     5     6   ar
    26     7     9   ar
    27    22    23   ar
    28    24    25   ar
    29     3     4    1
@<TRIPOS>MOLECULE
MolPort-039-210-396 CSSS03436989980 MCULE-9187658324 PubChem-121016984
 26 29 0 0 0
SMALL
GASTEIGER

@<TRIPOS>ATOM
      1 O          12.7753   39.8990   11.8821 O.2     1  UNL1       -0.2744
      2 C          13.1983   39.5965   10.7326 C.2     1  UNL1        0.2295
      3 N          12.5789   40.1552    9.5644 N.am    1  UNL1       -0.2812
      4 H          12.9346   39.8785    8.6891 H       1  UNL1        0.1550
      5 C          11.4875   41.0809    9.5660 C.ar    1  UNL1        0.0905
      6 C          10.1721   40.7459    9.7923 C.ar    1  UNL1        0.1114
      7 C          11.5441   42.4437    9.3372 C.ar    1  UNL1        0.1363
      8 N           9.4824   41.8965    9.7015 N.ar    1  UNL1       -0.2456
      9 N          10.2842   42.9133    9.4261 N.ar    1  UNL1       -0.1662
     10 C           8.0414   42.0192    9.8424 C.3     1  UNL1        0.1569
     11 O           6.0635   41.4685    8.4876 O.3     1  UNL1       -0.3542
     12 C           7.3700   42.0195    8.4673 C.3     1  UNL1        0.1395
     13 C           7.4020   43.4018    7.8035 C.3     1  UNL1        0.0317
     14 C           6.3902   44.3362    8.4579 C.3     1  UNL1        0.0051
     15 C           5.0327   43.6545    8.5333 C.3     1  UNL1        0.0322
     16 C           5.2033   42.3084    9.2297 C.3     1  UNL1        0.1421
     17 C          14.3564   38.6365   10.6024 C.3     1  UNL1        0.0934
     18 C          15.2755   39.1251    9.4832 C.3     1  UNL1        0.0132
     19 C          16.6837   39.1170   10.0364 C.3     1  UNL1        0.0008
     20 C          16.5219   39.2962   11.5253 C.3     1  UNL1        0.0008
     21 C          15.2163   38.6106   11.8671 C.3     1  UNL1        0.0132
     22 C          13.8396   37.2421   10.3337 C.ar    1  UNL1        0.0149
     23 C          12.6604   36.7118   10.8462 C.ar    1  UNL1        0.0031
     24 C          12.4176   35.3959   10.4247 C.ar    1  UNL1        0.0072
     25 C          13.3917   34.8719    9.5783 C.ar    1  UNL1        0.0351
     26 S          14.5543   36.0680    9.3629 S.2     1  UNL1       -0.0903
@<TRIPOS>BOND
     1     2     3   am
     2     6     8   ar
     3    10     8    1
     4    12    10    1
     5    12    13    1
     6    12    11    1
     7    13    14    1
     8    14    15    1
     9    15    16    1
    10    16    11    1
    11     7     5   ar
    12    17     2    1
    13    17    18    1
    14    17    22    1
    15    18    19    1
    16    19    20    1
    17    20    21    1
    18    21    17    1
    19    22    26   ar
    20    23    24   ar
    21    25    26   ar
    22     3     5    1
    23     8     9   ar
    24     2     1    2
    25     5     6   ar
    26     7     9   ar
    27    22    23   ar
    28    24    25   ar
    29     3     4    1
