@<TRIPOS>MOLECULE
MolPort-020-293-082 MCULE-3613256932 PubChem-110265549
 34 37 0 0 0
SMALL
GASTEIGER

@<TRIPOS>ATOM
      1 C          10.6816   38.5985    9.3775 C.3     1  UNL1        0.0724
      2 C          11.3794   37.3268    9.8533 C.3     1  UNL1        0.0178
      3 C          12.8869   37.5563    9.8908 C.3     1  UNL1        0.0087
      4 C          13.2146   38.7980   10.7210 C.3     1  UNL1        0.0563
      5 C          12.4061   39.9957   10.2169 C.3     1  UNL1        0.0783
      6 N          10.9763   39.7012   10.2931 N.3     1  UNL1       -0.2686
      7 C          14.6811   39.0906   10.6929 C.ar    1  UNL1        0.0614
      8 C          16.4773   40.3385    9.7456 C.ar    1  UNL1        0.1328
      9 C          17.3890   39.6831   10.5842 C.ar    1  UNL1        0.0344
     10 C          16.9302   38.7212   11.4842 C.ar    1  UNL1        0.0041
     11 C          15.5703   38.4193   11.5431 C.ar    1  UNL1        0.0149
     12 N          15.1551   40.0246    9.8241 N.ar    1  UNL1       -0.2348
     13 N          16.8955   41.3375    8.8047 N.pl3   1  UNL1       -0.2836
     14 H          17.8661   41.4849    8.7302 H       1  UNL1        0.1550
     15 C          16.0645   42.1482    7.9582 C.ar    1  UNL1        0.1291
     16 C          16.5255   43.4021    7.5235 C.ar    1  UNL1        0.0099
     17 C          15.7104   44.1835    6.7024 C.ar    1  UNL1        0.0001
     18 C          14.4520   43.7187    6.3214 C.ar    1  UNL1        0.0204
     19 C          14.0241   42.4694    6.7712 C.ar    1  UNL1        0.1003
     20 C          17.8669   43.9172    7.9189 C.3     1  UNL1        0.0340
     21 N          14.8297   41.7203    7.5703 N.ar    1  UNL1       -0.2294
     22 C          10.2817   40.8741    9.7872 C.3     1  UNL1        0.0991
     23 C           9.2276   40.2387    5.6690 C.ar    1  UNL1        0.1368
     24 C           8.2249   40.3469    6.6486 C.ar    1  UNL1        0.0407
     25 C           8.5734   40.5546    7.9876 C.ar    1  UNL1       -0.0018
     26 C           9.9163   40.6739    8.3565 C.ar    1  UNL1       -0.0062
     27 C          10.9173   40.5672    7.3876 C.ar    1  UNL1        0.0002
     28 C          10.5754   40.3526    6.0504 C.ar    1  UNL1        0.0364
     29 C           6.7847   40.2034    6.2888 C.3     1  UNL1        0.1666
     30 O           6.5617   38.9439    5.7322 O.3     1  UNL1       -0.3771
     31 H           7.1025   38.8431    4.9333 H       1  UNL1        0.2109
     32 O           8.8701   40.0209    4.3331 O.3     1  UNL1       -0.4757
     33 C          10.7852   38.7289    3.6941 C.3     1  UNL1        0.0512
     34 C           9.2807   38.8720    3.6043 C.3     1  UNL1        0.2055
@<TRIPOS>BOND
     1    33    34    1
     2    34    32    1
     3    23    32    1
     4    24    25   ar
     5    26    27   ar
     6    28    23   ar
     7    22    26    1
     8    22     6    1
     9     1     6    1
    10     1     2    1
    11     2     3    1
    12     3     4    1
    13     4     5    1
    14     4     7    1
    15     5     6    1
    16     8    12   ar
    17     8    13    1
    18     9    10   ar
    19    11     7   ar
    20    15    21   ar
    21    16    17   ar
    22    18    19   ar
    23    20    16    1
    24    29    24    1
    25    29    30    1
    26    13    15    1
    27    23    24   ar
    28    25    26   ar
    29    27    28   ar
    30     7    12   ar
    31     8     9   ar
    32    10    11   ar
    33    15    16   ar
    34    17    18   ar
    35    19    21   ar
    36    30    31    1
    37    13    14    1
@<TRIPOS>MOLECULE
MolPort-020-293-082 MCULE-3613256932 PubChem-110265549
 34 37 0 0 0
SMALL
GASTEIGER

@<TRIPOS>ATOM
      1 C           7.4335   41.8988   10.8732 C.3     1  UNL1        0.0724
      2 C           8.2366   41.6948   12.1555 C.3     1  UNL1        0.0178
      3 C           9.5785   41.0521   11.8196 C.3     1  UNL1        0.0087
      4 C          10.3048   41.8677   10.7492 C.3     1  UNL1        0.0563
      5 C           9.3891   42.0848    9.5423 C.3     1  UNL1        0.0783
      6 N           8.1685   42.7730    9.9584 N.3     1  UNL1       -0.2686
      7 C          11.5810   41.2024   10.3417 C.ar    1  UNL1        0.0614
      8 C          13.3887   41.0696    8.7939 C.ar    1  UNL1        0.1328
      9 C          13.9507   40.0140    9.5246 C.ar    1  UNL1        0.0344
     10 C          13.3114   39.5548   10.6762 C.ar    1  UNL1        0.0041
     11 C          12.1201   40.1483   11.0915 C.ar    1  UNL1        0.0149
     12 N          12.2249   41.6310    9.2220 N.ar    1  UNL1       -0.2348
     13 N          14.0064   41.5820    7.6047 N.pl3   1  UNL1       -0.2836
     14 H          13.5539   41.3730    6.7557 H       1  UNL1        0.1550
     15 C          15.2076   42.3642    7.5071 C.ar    1  UNL1        0.1291
     16 C          15.2462   43.4784    6.6522 C.ar    1  UNL1        0.0099
     17 C          16.4184   44.2316    6.5627 C.ar    1  UNL1        0.0001
     18 C          17.5364   43.8761    7.3166 C.ar    1  UNL1        0.0204
     19 C          17.4650   42.7635    8.1552 C.ar    1  UNL1        0.1003
     20 C          14.0626   43.8754    5.8383 C.3     1  UNL1        0.0340
     21 N          16.3161   42.0402    8.2313 N.ar    1  UNL1       -0.2294
     22 C           7.3507   42.9285    8.7664 C.3     1  UNL1        0.0991
     23 C           8.2757   39.8841    5.8767 C.ar    1  UNL1        0.1368
     24 C           9.2378   40.8495    6.2216 C.ar    1  UNL1        0.0407
     25 C           8.9318   41.8378    7.1636 C.ar    1  UNL1       -0.0018
     26 C           7.6774   41.8608    7.7797 C.ar    1  UNL1       -0.0062
     27 C           6.7172   40.9041    7.4410 C.ar    1  UNL1        0.0002
     28 C           7.0147   39.9195    6.4960 C.ar    1  UNL1        0.0364
     29 C          10.5775   40.8632    5.5664 C.3     1  UNL1        0.1666
     30 O          11.0055   42.1801    5.3977 O.3     1  UNL1       -0.3771
     31 H          10.3716   42.6571    4.8395 H       1  UNL1        0.2109
     32 O           8.5871   38.9049    4.9259 O.3     1  UNL1       -0.4757
     33 C           9.7292   37.9443    3.0503 C.3     1  UNL1        0.0512
     34 C           9.1824   39.2115    3.6724 C.3     1  UNL1        0.2055
@<TRIPOS>BOND
     1    33    34    1
     2    34    32    1
     3    23    32    1
     4    24    25   ar
     5    26    27   ar
     6    28    23   ar
     7    22    26    1
     8    22     6    1
     9     1     6    1
    10     1     2    1
    11     2     3    1
    12     3     4    1
    13     4     5    1
    14     4     7    1
    15     5     6    1
    16     8    12   ar
    17     8    13    1
    18     9    10   ar
    19    11     7   ar
    20    15    21   ar
    21    16    17   ar
    22    18    19   ar
    23    20    16    1
    24    29    24    1
    25    29    30    1
    26    13    15    1
    27    23    24   ar
    28    25    26   ar
    29    27    28   ar
    30     7    12   ar
    31     8     9   ar
    32    10    11   ar
    33    15    16   ar
    34    17    18   ar
    35    19    21   ar
    36    30    31    1
    37    13    14    1
@<TRIPOS>MOLECULE
MolPort-020-293-082 MCULE-3613256932 PubChem-110265549
 34 37 0 0 0
SMALL
GASTEIGER

@<TRIPOS>ATOM
      1 C           8.3435   41.8367   10.3063 C.3     1  UNL1        0.0724
      2 C           9.1236   41.8119   11.6183 C.3     1  UNL1        0.0178
      3 C          10.4225   41.0360   11.4243 C.3     1  UNL1        0.0087
      4 C          11.2073   41.6019   10.2401 C.3     1  UNL1        0.0563
      5 C          10.3152   41.6601    8.9979 C.3     1  UNL1        0.0783
      6 N           9.1398   42.4870    9.2650 N.3     1  UNL1       -0.2686
      7 C          12.4395   40.7954    9.9784 C.ar    1  UNL1        0.0614
      8 C          14.5978   40.6664    8.9753 C.ar    1  UNL1        0.1328
      9 C          14.7528   39.3577    9.4522 C.ar    1  UNL1        0.0344
     10 C          13.7323   38.7705   10.2000 C.ar    1  UNL1        0.0041
     11 C          12.5673   39.4883   10.4675 C.ar    1  UNL1        0.0149
     12 N          13.4503   41.3446    9.2513 N.ar    1  UNL1       -0.2348
     13 N          15.6171   41.3183    8.2045 N.pl3   1  UNL1       -0.2836
     14 H          16.5207   40.9319    8.2641 H       1  UNL1        0.1550
     15 C          15.4745   42.4687    7.3556 C.ar    1  UNL1        0.1291
     16 C          16.4556   43.4742    7.3737 C.ar    1  UNL1        0.0099
     17 C          16.3076   44.5891    6.5465 C.ar    1  UNL1        0.0001
     18 C          15.1947   44.6981    5.7133 C.ar    1  UNL1        0.0204
     19 C          14.2385   43.6823    5.7201 C.ar    1  UNL1        0.1003
     20 C          17.6524   43.3769    8.2564 C.3     1  UNL1        0.0340
     21 N          14.3970   42.6027    6.5314 N.ar    1  UNL1       -0.2294
     22 C           8.3412   42.4811    8.0501 C.3     1  UNL1        0.0991
     23 C           4.1898   42.0584    9.0805 C.ar    1  UNL1        0.1368
     24 C           4.6954   43.3054    8.6731 C.ar    1  UNL1        0.0407
     25 C           6.0474   43.4374    8.3378 C.ar    1  UNL1       -0.0018
     26 C           6.8979   42.3293    8.3881 C.ar    1  UNL1       -0.0062
     27 C           6.4013   41.0875    8.7922 C.ar    1  UNL1        0.0002
     28 C           5.0540   40.9516    9.1350 C.ar    1  UNL1        0.0364
     29 C           3.8173   44.5101    8.6294 C.3     1  UNL1        0.1666
     30 O           4.3385   45.4400    7.7296 O.3     1  UNL1       -0.3771
     31 H           5.2277   45.7025    8.0146 H       1  UNL1        0.2109
     32 O           2.8380   41.9378    9.4236 O.3     1  UNL1       -0.4757
     33 C           3.4774   41.5242   11.6963 C.3     1  UNL1        0.0512
     34 C           2.3774   41.9916   10.7670 C.3     1  UNL1        0.2055
@<TRIPOS>BOND
     1    33    34    1
     2    34    32    1
     3    23    32    1
     4    24    25   ar
     5    26    27   ar
     6    28    23   ar
     7    22    26    1
     8    22     6    1
     9     1     6    1
    10     1     2    1
    11     2     3    1
    12     3     4    1
    13     4     5    1
    14     4     7    1
    15     5     6    1
    16     8    12   ar
    17     8    13    1
    18     9    10   ar
    19    11     7   ar
    20    15    21   ar
    21    16    17   ar
    22    18    19   ar
    23    20    16    1
    24    29    24    1
    25    29    30    1
    26    13    15    1
    27    23    24   ar
    28    25    26   ar
    29    27    28   ar
    30     7    12   ar
    31     8     9   ar
    32    10    11   ar
    33    15    16   ar
    34    17    18   ar
    35    19    21   ar
    36    30    31    1
    37    13    14    1
@<TRIPOS>MOLECULE
MolPort-020-293-082 MCULE-3613256932 PubChem-110265549
 34 37 0 0 0
SMALL
GASTEIGER

@<TRIPOS>ATOM
      1 C          10.6469   38.0331    8.7549 C.3     1  UNL1        0.0724
      2 C          11.1351   37.2058    9.9415 C.3     1  UNL1        0.0178
      3 C          12.6284   37.4401   10.1460 C.3     1  UNL1        0.0087
      4 C          12.9199   38.9366   10.2641 C.3     1  UNL1        0.0563
      5 C          12.3213   39.6845    9.0705 C.3     1  UNL1        0.0783
      6 N          10.8789   39.4552    9.0095 N.3     1  UNL1       -0.2686
      7 C          14.3900   39.1899   10.3735 C.ar    1  UNL1        0.0614
      8 C          16.2933   40.4133    9.6240 C.ar    1  UNL1        0.1328
      9 C          17.1106   39.7113   10.5204 C.ar    1  UNL1        0.0344
     10 C          16.5502   38.7387   11.3485 C.ar    1  UNL1        0.0041
     11 C          15.1834   38.4725   11.2789 C.ar    1  UNL1        0.0149
     12 N          14.9620   40.1334    9.5769 N.ar    1  UNL1       -0.2348
     13 N          16.8178   41.4251    8.7526 N.pl3   1  UNL1       -0.2836
     14 H          17.7963   41.5337    8.7526 H       1  UNL1        0.1550
     15 C          16.0831   42.2985    7.8799 C.ar    1  UNL1        0.1291
     16 C          16.6412   43.5286    7.4938 C.ar    1  UNL1        0.0099
     17 C          15.9191   44.3715    6.6467 C.ar    1  UNL1        0.0001
     18 C          14.6569   43.9907    6.1922 C.ar    1  UNL1        0.0204
     19 C          14.1314   42.7629    6.5953 C.ar    1  UNL1        0.1003
     20 C          17.9884   43.9543    7.9679 C.3     1  UNL1        0.0340
     21 N          14.8470   41.9532    7.4206 N.ar    1  UNL1       -0.2294
     22 C          10.3901   40.1824    7.8492 C.3     1  UNL1        0.0991
     23 C           7.0495   42.6538    8.9481 C.ar    1  UNL1        0.1368
     24 C           7.4255   42.5293    7.5991 C.ar    1  UNL1        0.0407
     25 C           8.5131   41.7227    7.2467 C.ar    1  UNL1       -0.0018
     26 C           9.2197   41.0230    8.2288 C.ar    1  UNL1       -0.0062
     27 C           8.8510   41.1428    9.5711 C.ar    1  UNL1        0.0002
     28 C           7.7705   41.9523    9.9294 C.ar    1  UNL1        0.0364
     29 C           6.7038   43.2795    6.5310 C.3     1  UNL1        0.1666
     30 O           7.5951   43.6274    5.5159 O.3     1  UNL1       -0.3771
     31 H           8.2982   44.1874    5.8808 H       1  UNL1        0.2109
     32 O           5.9662   43.4709    9.2926 O.3     1  UNL1       -0.4757
     33 C           3.6880   42.7912    9.5974 C.3     1  UNL1        0.0512
     34 C           4.7035   43.3874    8.6459 C.3     1  UNL1        0.2055
@<TRIPOS>BOND
     1    33    34    1
     2    34    32    1
     3    23    32    1
     4    24    25   ar
     5    26    27   ar
     6    28    23   ar
     7    22    26    1
     8    22     6    1
     9     1     6    1
    10     1     2    1
    11     2     3    1
    12     3     4    1
    13     4     5    1
    14     4     7    1
    15     5     6    1
    16     8    12   ar
    17     8    13    1
    18     9    10   ar
    19    11     7   ar
    20    15    21   ar
    21    16    17   ar
    22    18    19   ar
    23    20    16    1
    24    29    24    1
    25    29    30    1
    26    13    15    1
    27    23    24   ar
    28    25    26   ar
    29    27    28   ar
    30     7    12   ar
    31     8     9   ar
    32    10    11   ar
    33    15    16   ar
    34    17    18   ar
    35    19    21   ar
    36    30    31    1
    37    13    14    1
@<TRIPOS>MOLECULE
MolPort-020-293-082 MCULE-3613256932 PubChem-110265549
 34 37 0 0 0
SMALL
GASTEIGER

@<TRIPOS>ATOM
      1 C           7.6319   41.7771   11.4437 C.3     1  UNL1        0.0724
      2 C           8.6131   41.7162   12.6117 C.3     1  UNL1        0.0178
      3 C           9.9213   41.0850   12.1459 C.3     1  UNL1        0.0087
      4 C          10.4569   41.8192   10.9160 C.3     1  UNL1        0.0563
      5 C           9.3741   41.8968    9.8372 C.3     1  UNL1        0.0783
      6 N           8.1952   42.5842   10.3609 N.3     1  UNL1       -0.2686
      7 C          11.6910   41.1569   10.3909 C.ar    1  UNL1        0.0614
      8 C          13.2596   40.9214    8.6119 C.ar    1  UNL1        0.1328
      9 C          13.9715   39.9676    9.3518 C.ar    1  UNL1        0.0344
     10 C          13.5286   39.6114   10.6256 C.ar    1  UNL1        0.0041
     11 C          12.3830   40.2059   11.1529 C.ar    1  UNL1        0.0149
     12 N          12.1445   41.4862    9.1508 N.ar    1  UNL1       -0.2348
     13 N          13.6732   41.3258    7.2990 N.pl3   1  UNL1       -0.2836
     14 H          13.4684   40.7000    6.5671 H       1  UNL1        0.1550
     15 C          14.3511   42.5366    6.9266 C.ar    1  UNL1        0.1291
     16 C          15.6422   42.7920    7.4181 C.ar    1  UNL1        0.0099
     17 C          16.2924   43.9720    7.0521 C.ar    1  UNL1        0.0001
     18 C          15.6612   44.8843    6.2071 C.ar    1  UNL1        0.0204
     19 C          14.3787   44.6006    5.7373 C.ar    1  UNL1        0.1003
     20 C          16.3344   41.8302    8.3219 C.3     1  UNL1        0.0340
     21 N          13.7587   43.4470    6.1029 N.ar    1  UNL1       -0.2294
     22 C           7.2139   42.6048    9.2883 C.3     1  UNL1        0.0991
     23 C           8.7849   40.5133    5.8777 C.ar    1  UNL1        0.1368
     24 C           8.6718   39.8616    7.1183 C.ar    1  UNL1        0.0407
     25 C           8.1588   40.5467    8.2252 C.ar    1  UNL1       -0.0018
     26 C           7.7396   41.8743    8.1007 C.ar    1  UNL1       -0.0062
     27 C           7.8497   42.5274    6.8705 C.ar    1  UNL1        0.0002
     28 C           8.3678   41.8505    5.7639 C.ar    1  UNL1        0.0364
     29 C           9.1296   38.4523    7.2872 C.3     1  UNL1        0.1666
     30 O           8.3103   37.5994    6.5476 O.3     1  UNL1       -0.3771
     31 H           7.3955   37.6781    6.8604 H       1  UNL1        0.2109
     32 O           9.3086   39.8231    4.7781 O.3     1  UNL1       -0.4757
     33 C          11.0014   38.5225    3.6882 C.3     1  UNL1        0.0512
     34 C          10.7006   39.7663    4.4972 C.3     1  UNL1        0.2055
@<TRIPOS>BOND
     1    33    34    1
     2    34    32    1
     3    23    32    1
     4    24    25   ar
     5    26    27   ar
     6    28    23   ar
     7    22    26    1
     8    22     6    1
     9     1     6    1
    10     1     2    1
    11     2     3    1
    12     3     4    1
    13     4     5    1
    14     4     7    1
    15     5     6    1
    16     8    12   ar
    17     8    13    1
    18     9    10   ar
    19    11     7   ar
    20    15    21   ar
    21    16    17   ar
    22    18    19   ar
    23    20    16    1
    24    29    24    1
    25    29    30    1
    26    13    15    1
    27    23    24   ar
    28    25    26   ar
    29    27    28   ar
    30     7    12   ar
    31     8     9   ar
    32    10    11   ar
    33    15    16   ar
    34    17    18   ar
    35    19    21   ar
    36    30    31    1
    37    13    14    1
@<TRIPOS>MOLECULE
MolPort-020-293-082 MCULE-3613256932 PubChem-110265549
 34 37 0 0 0
SMALL
GASTEIGER

@<TRIPOS>ATOM
      1 C          10.2867   39.5010    8.4073 C.3     1  UNL1        0.0724
      2 C          10.7673   38.2311    9.1051 C.3     1  UNL1        0.0178
      3 C          12.2808   38.2905    9.2856 C.3     1  UNL1        0.0087
      4 C          12.6806   39.5845    9.9956 C.3     1  UNL1        0.0563
      5 C          12.0840   40.7903    9.2660 C.3     1  UNL1        0.0783
      6 N          10.6279   40.6730    9.2143 N.3     1  UNL1       -0.2686
      7 C          14.1681   39.7021   10.0993 C.ar    1  UNL1        0.0614
      8 C          16.1760   40.7227    9.3197 C.ar    1  UNL1        0.1328
      9 C          16.9258   39.9708   10.2343 C.ar    1  UNL1        0.0344
     10 C          16.2785   39.0764   11.0868 C.ar    1  UNL1        0.0041
     11 C          14.8927   38.9372   11.0234 C.ar    1  UNL1        0.0149
     12 N          14.8243   40.5673    9.2790 N.ar    1  UNL1       -0.2348
     13 N          16.7911   41.6584    8.4228 N.pl3   1  UNL1       -0.2836
     14 H          17.7753   41.6544    8.3989 H       1  UNL1        0.1550
     15 C          16.1397   42.6005    7.5554 C.ar    1  UNL1        0.1291
     16 C          16.7921   43.7956    7.2091 C.ar    1  UNL1        0.0099
     17 C          16.1506   44.7059    6.3670 C.ar    1  UNL1        0.0001
     18 C          14.8749   44.4260    5.8780 C.ar    1  UNL1        0.0204
     19 C          14.2548   43.2306    6.2419 C.ar    1  UNL1        0.1003
     20 C          18.1553   44.1137    7.7206 C.3     1  UNL1        0.0340
     21 N          14.8927   42.3543    7.0629 N.ar    1  UNL1       -0.2294
     22 C          10.1408   41.8412    8.4987 C.3     1  UNL1        0.0991
     23 C           5.8539   42.0034    8.7647 C.ar    1  UNL1        0.1368
     24 C           6.6210   41.6535    9.8898 C.ar    1  UNL1        0.0407
     25 C           8.0162   41.6032    9.7981 C.ar    1  UNL1       -0.0018
     26 C           8.6558   41.9172    8.5956 C.ar    1  UNL1       -0.0062
     27 C           7.8989   42.2654    7.4740 C.ar    1  UNL1        0.0002
     28 C           6.5053   42.3103    7.5579 C.ar    1  UNL1        0.0364
     29 C           5.9665   41.2934   11.1806 C.3     1  UNL1        0.1666
     30 O           6.9394   40.9920   12.1337 O.3     1  UNL1       -0.3771
     31 H           7.4727   40.2427   11.8256 H       1  UNL1        0.2109
     32 O           4.4580   42.0416    8.8629 O.3     1  UNL1       -0.4757
     33 C           4.2686   44.3550    8.2652 C.3     1  UNL1        0.0512
     34 C           3.7383   43.2362    9.1363 C.3     1  UNL1        0.2055
@<TRIPOS>BOND
     1    33    34    1
     2    34    32    1
     3    23    32    1
     4    24    25   ar
     5    26    27   ar
     6    28    23   ar
     7    22    26    1
     8    22     6    1
     9     1     6    1
    10     1     2    1
    11     2     3    1
    12     3     4    1
    13     4     5    1
    14     4     7    1
    15     5     6    1
    16     8    12   ar
    17     8    13    1
    18     9    10   ar
    19    11     7   ar
    20    15    21   ar
    21    16    17   ar
    22    18    19   ar
    23    20    16    1
    24    29    24    1
    25    29    30    1
    26    13    15    1
    27    23    24   ar
    28    25    26   ar
    29    27    28   ar
    30     7    12   ar
    31     8     9   ar
    32    10    11   ar
    33    15    16   ar
    34    17    18   ar
    35    19    21   ar
    36    30    31    1
    37    13    14    1
@<TRIPOS>MOLECULE
MolPort-020-293-082 MCULE-3613256932 PubChem-110265549
 34 37 0 0 0
SMALL
GASTEIGER

@<TRIPOS>ATOM
      1 C           9.3913   40.9112    6.6013 C.3     1  UNL1        0.0724
      2 C           9.8703   39.4626    6.5490 C.3     1  UNL1        0.0178
      3 C          11.2474   39.3576    7.1966 C.3     1  UNL1        0.0087
      4 C          11.2200   39.9574    8.6030 C.3     1  UNL1        0.0563
      5 C          10.6502   41.3771    8.5579 C.3     1  UNL1        0.0783
      6 N           9.3026   41.3570    7.9922 N.3     1  UNL1       -0.2686
      7 C          12.5834   39.9457    9.2180 C.ar    1  UNL1        0.0614
      8 C          14.8509   40.6742    9.1251 C.ar    1  UNL1        0.1328
      9 C          15.1373   39.9674   10.3008 C.ar    1  UNL1        0.0344
     10 C          14.1268   39.2440   10.9344 C.ar    1  UNL1        0.0041
     11 C          12.8414   39.2295   10.3946 C.ar    1  UNL1        0.0149
     12 N          13.5873   40.6431    8.6199 N.ar    1  UNL1       -0.2348
     13 N          15.8520   41.4363    8.4356 N.pl3   1  UNL1       -0.2836
     14 H          16.7874   41.1860    8.6134 H       1  UNL1        0.1550
     15 C          15.6501   42.5217    7.5162 C.ar    1  UNL1        0.1291
     16 C          16.4853   43.6498    7.5754 C.ar    1  UNL1        0.0099
     17 C          16.2805   44.7004    6.6789 C.ar    1  UNL1        0.0001
     18 C          15.2551   44.6250    5.7368 C.ar    1  UNL1        0.0204
     19 C          14.4431   43.4910    5.7053 C.ar    1  UNL1        0.1003
     20 C          17.5868   43.7501    8.5742 C.3     1  UNL1        0.0340
     21 N          14.6554   42.4762    6.5852 N.ar    1  UNL1       -0.2294
     22 C           8.8390   42.7350    7.9705 C.3     1  UNL1        0.0991
     23 C           4.7374   42.9685    9.2342 C.ar    1  UNL1        0.1368
     24 C           5.2018   43.7768    8.1817 C.ar    1  UNL1        0.0407
     25 C           6.5377   43.6962    7.7736 C.ar    1  UNL1       -0.0018
     26 C           7.4124   42.8009    8.3958 C.ar    1  UNL1       -0.0062
     27 C           6.9568   41.9951    9.4423 C.ar    1  UNL1        0.0002
     28 C           5.6260   42.0766    9.8586 C.ar    1  UNL1        0.0364
     29 C           4.2978   44.7561    7.5124 C.3     1  UNL1        0.1666
     30 O           3.5072   45.3958    8.4672 O.3     1  UNL1       -0.3771
     31 H           2.9729   44.7373    8.9383 H       1  UNL1        0.2109
     32 O           3.4017   43.0630    9.6425 O.3     1  UNL1       -0.4757
     33 C           3.0328   40.7048    9.8611 C.3     1  UNL1        0.0512
     34 C           2.7716   42.0758   10.4476 C.3     1  UNL1        0.2055
@<TRIPOS>BOND
     1    33    34    1
     2    34    32    1
     3    23    32    1
     4    24    25   ar
     5    26    27   ar
     6    28    23   ar
     7    22    26    1
     8    22     6    1
     9     1     6    1
    10     1     2    1
    11     2     3    1
    12     3     4    1
    13     4     5    1
    14     4     7    1
    15     5     6    1
    16     8    12   ar
    17     8    13    1
    18     9    10   ar
    19    11     7   ar
    20    15    21   ar
    21    16    17   ar
    22    18    19   ar
    23    20    16    1
    24    29    24    1
    25    29    30    1
    26    13    15    1
    27    23    24   ar
    28    25    26   ar
    29    27    28   ar
    30     7    12   ar
    31     8     9   ar
    32    10    11   ar
    33    15    16   ar
    34    17    18   ar
    35    19    21   ar
    36    30    31    1
    37    13    14    1
@<TRIPOS>MOLECULE
MolPort-020-293-082 MCULE-3613256932 PubChem-110265549
 34 37 0 0 0
SMALL
GASTEIGER

@<TRIPOS>ATOM
      1 C           9.4790   40.8399    5.4750 C.3     1  UNL1        0.0724
      2 C          10.2491   39.5427    5.2407 C.3     1  UNL1        0.0178
      3 C          11.4833   39.5139    6.1367 C.3     1  UNL1        0.0087
      4 C          11.0869   39.7520    7.5944 C.3     1  UNL1        0.0563
      5 C          10.2524   41.0297    7.7102 C.3     1  UNL1        0.0783
      6 N           9.0582   40.9241    6.8739 N.3     1  UNL1       -0.2686
      7 C          12.2943   39.8181    8.4748 C.ar    1  UNL1        0.0614
      8 C          14.4891   40.6738    8.8376 C.ar    1  UNL1        0.1328
      9 C          14.5676   39.9853   10.0558 C.ar    1  UNL1        0.0344
     10 C          13.4905   39.2065   10.4787 C.ar    1  UNL1        0.0041
     11 C          12.3454   39.1187    9.6881 C.ar    1  UNL1        0.0149
     12 N          13.3592   40.5707    8.0855 N.ar    1  UNL1       -0.2348
     13 N          15.5664   41.4906    8.3575 N.pl3   1  UNL1       -0.2836
     14 H          16.4649   41.2639    8.6900 H       1  UNL1        0.1550
     15 C          15.4882   42.6007    7.4487 C.ar    1  UNL1        0.1291
     16 C          16.5439   43.5255    7.3856 C.ar    1  UNL1        0.0099
     17 C          16.4583   44.6018    6.5005 C.ar    1  UNL1        0.0001
     18 C          15.3335   44.7522    5.6901 C.ar    1  UNL1        0.0204
     19 C          14.3025   43.8165    5.7780 C.ar    1  UNL1        0.1003
     20 C          17.7548   43.3829    8.2426 C.3     1  UNL1        0.0340
     21 N          14.4008   42.7737    6.6450 N.ar    1  UNL1       -0.2294
     22 C           8.3305   42.1736    7.0268 C.3     1  UNL1        0.0991
     23 C           5.8715   41.9703   10.5462 C.ar    1  UNL1        0.1368
     24 C           7.2627   41.7914   10.6424 C.ar    1  UNL1        0.0407
     25 C           8.0587   41.8595    9.4938 C.ar    1  UNL1       -0.0018
     26 C           7.4799   42.1232    8.2492 C.ar    1  UNL1       -0.0062
     27 C           6.0979   42.3017    8.1472 C.ar    1  UNL1        0.0002
     28 C           5.2975   42.2276    9.2895 C.ar    1  UNL1        0.0364
     29 C           7.9066   41.4883   11.9531 C.3     1  UNL1        0.1666
     30 O           7.8354   42.6077   12.7825 O.3     1  UNL1       -0.3771
     31 H           8.2973   43.3506   12.3634 H       1  UNL1        0.2109
     32 O           5.0816   41.8905   11.6992 O.3     1  UNL1       -0.4757
     33 C           3.7213   39.9200   11.5886 C.3     1  UNL1        0.0512
     34 C           3.7368   41.4311   11.6803 C.3     1  UNL1        0.2055
@<TRIPOS>BOND
     1    33    34    1
     2    34    32    1
     3    23    32    1
     4    24    25   ar
     5    26    27   ar
     6    28    23   ar
     7    22    26    1
     8    22     6    1
     9     1     6    1
    10     1     2    1
    11     2     3    1
    12     3     4    1
    13     4     5    1
    14     4     7    1
    15     5     6    1
    16     8    12   ar
    17     8    13    1
    18     9    10   ar
    19    11     7   ar
    20    15    21   ar
    21    16    17   ar
    22    18    19   ar
    23    20    16    1
    24    29    24    1
    25    29    30    1
    26    13    15    1
    27    23    24   ar
    28    25    26   ar
    29    27    28   ar
    30     7    12   ar
    31     8     9   ar
    32    10    11   ar
    33    15    16   ar
    34    17    18   ar
    35    19    21   ar
    36    30    31    1
    37    13    14    1
@<TRIPOS>MOLECULE
MolPort-020-293-082 MCULE-3613256932 PubChem-110265549
 34 37 0 0 0
SMALL
GASTEIGER

@<TRIPOS>ATOM
      1 C           8.7415   42.3623   11.3745 C.3     1  UNL1        0.0724
      2 C           9.1426   41.2305   12.3173 C.3     1  UNL1        0.0178
      3 C          10.1826   40.3456   11.6376 C.3     1  UNL1        0.0087
      4 C          11.3556   41.1910   11.1399 C.3     1  UNL1        0.0563
      5 C          10.8427   42.3427   10.2723 C.3     1  UNL1        0.0783
      6 N           9.9140   43.1710   11.0391 N.3     1  UNL1       -0.2686
      7 C          12.3415   40.3523   10.3903 C.ar    1  UNL1        0.0614
      8 C          14.3269   40.2536    9.0753 C.ar    1  UNL1        0.1328
      9 C          14.2076   38.8604    8.9806 C.ar    1  UNL1        0.0344
     10 C          13.1380   38.2158    9.6019 C.ar    1  UNL1        0.0041
     11 C          12.1970   38.9606   10.3118 C.ar    1  UNL1        0.0149
     12 N          13.3942   40.9562    9.7748 N.ar    1  UNL1       -0.2348
     13 N          15.4087   40.9656    8.4580 N.pl3   1  UNL1       -0.2836
     14 H          16.3134   40.6200    8.6352 H       1  UNL1        0.1550
     15 C          15.3271   42.1237    7.6116 C.ar    1  UNL1        0.1291
     16 C          16.3138   43.1202    7.6969 C.ar    1  UNL1        0.0099
     17 C          16.2253   44.2428    6.8716 C.ar    1  UNL1        0.0001
     18 C          15.1656   44.3681    5.9738 C.ar    1  UNL1        0.0204
     19 C          14.2022   43.3609    5.9148 C.ar    1  UNL1        0.1003
     20 C          17.4544   43.0055    8.6492 C.3     1  UNL1        0.0340
     21 N          14.3024   42.2737    6.7253 N.ar    1  UNL1       -0.2294
     22 C           9.4637   44.2273   10.1474 C.3     1  UNL1        0.0991
     23 C           7.5083   42.4869    6.7383 C.ar    1  UNL1        0.1368
     24 C           6.8748   43.5016    7.4771 C.ar    1  UNL1        0.0407
     25 C           7.5162   44.0655    8.5854 C.ar    1  UNL1       -0.0018
     26 C           8.7949   43.6376    8.9535 C.ar    1  UNL1       -0.0062
     27 C           9.4295   42.6295    8.2233 C.ar    1  UNL1        0.0002
     28 C           8.7909   42.0580    7.1202 C.ar    1  UNL1        0.0364
     29 C           5.5025   43.9646    7.1213 C.3     1  UNL1        0.1666
     30 O           4.5765   43.4201    8.0112 O.3     1  UNL1       -0.3771
     31 H           4.6105   42.4520    7.9611 H       1  UNL1        0.2109
     32 O           6.8549   41.9215    5.6368 O.3     1  UNL1       -0.4757
     33 C           6.2356   39.9900    6.9138 C.3     1  UNL1        0.0512
     34 C           6.5706   40.5324    5.5407 C.3     1  UNL1        0.2055
@<TRIPOS>BOND
     1    33    34    1
     2    34    32    1
     3    23    32    1
     4    24    25   ar
     5    26    27   ar
     6    28    23   ar
     7    22    26    1
     8    22     6    1
     9     1     6    1
    10     1     2    1
    11     2     3    1
    12     3     4    1
    13     4     5    1
    14     4     7    1
    15     5     6    1
    16     8    12   ar
    17     8    13    1
    18     9    10   ar
    19    11     7   ar
    20    15    21   ar
    21    16    17   ar
    22    18    19   ar
    23    20    16    1
    24    29    24    1
    25    29    30    1
    26    13    15    1
    27    23    24   ar
    28    25    26   ar
    29    27    28   ar
    30     7    12   ar
    31     8     9   ar
    32    10    11   ar
    33    15    16   ar
    34    17    18   ar
    35    19    21   ar
    36    30    31    1
    37    13    14    1
@<TRIPOS>MOLECULE
MolPort-020-293-082 MCULE-3613256932 PubChem-110265549
 34 37 0 0 0
SMALL
GASTEIGER

@<TRIPOS>ATOM
      1 C          10.5729   41.9529    7.3307 C.3     1  UNL1        0.0724
      2 C          11.3048   41.7136    6.0125 C.3     1  UNL1        0.0178
      3 C          12.7598   42.1502    6.1509 C.3     1  UNL1        0.0087
      4 C          13.4059   41.4694    7.3582 C.3     1  UNL1        0.0563
      5 C          12.5556   41.7006    8.6095 C.3     1  UNL1        0.0783
      6 N          11.2060   41.1800    8.3998 N.3     1  UNL1       -0.2686
      7 C          14.8055   41.9557    7.5631 C.ar    1  UNL1        0.0614
      8 C          16.9187   41.6502    8.6224 C.ar    1  UNL1        0.1328
      9 C          17.4128   42.8002    7.9919 C.ar    1  UNL1        0.0344
     10 C          16.5843   43.5294    7.1389 C.ar    1  UNL1        0.0041
     11 C          15.2730   43.1096    6.9197 C.ar    1  UNL1        0.0149
     12 N          15.6345   41.2629    8.3904 N.ar    1  UNL1       -0.2348
     13 N          17.7289   40.8626    9.5063 N.pl3   1  UNL1       -0.2836
     14 H          18.6473   41.1842    9.6560 H       1  UNL1        0.1550
     15 C          17.3578   39.6596   10.1986 C.ar    1  UNL1        0.1291
     16 C          18.2479   38.5732   10.2344 C.ar    1  UNL1        0.0099
     17 C          17.8780   37.4077   10.9082 C.ar    1  UNL1        0.0001
     18 C          16.6359   37.3287   11.5372 C.ar    1  UNL1        0.0204
     19 C          15.7752   38.4253   11.4820 C.ar    1  UNL1        0.1003
     20 C          19.5800   38.6372    9.5691 C.3     1  UNL1        0.0340
     21 N          16.1501   39.5533   10.8218 N.ar    1  UNL1       -0.2294
     22 C          10.4615   41.4484    9.6196 C.3     1  UNL1        0.0991
     23 C           6.3371   42.2014    8.6728 C.ar    1  UNL1        0.1368
     24 C           6.7065   41.8144    9.9730 C.ar    1  UNL1        0.0407
     25 C           8.0506   41.5715   10.2761 C.ar    1  UNL1       -0.0018
     26 C           9.0343   41.7291    9.2958 C.ar    1  UNL1       -0.0062
     27 C           8.6734   42.1133    8.0019 C.ar    1  UNL1        0.0002
     28 C           7.3322   42.3502    7.6918 C.ar    1  UNL1        0.0364
     29 C           5.6775   41.6180   11.0346 C.3     1  UNL1        0.1666
     30 O           6.0413   40.5465   11.8503 O.3     1  UNL1       -0.3771
     31 H           6.1065   39.7402   11.3150 H       1  UNL1        0.2109
     32 O           4.9887   42.4327    8.3759 O.3     1  UNL1       -0.4757
     33 C           4.1792   44.6398    7.9086 C.3     1  UNL1        0.0512
     34 C           4.2556   43.5198    8.9242 C.3     1  UNL1        0.2055
@<TRIPOS>BOND
     1    33    34    1
     2    34    32    1
     3    23    32    1
     4    24    25   ar
     5    26    27   ar
     6    28    23   ar
     7    22    26    1
     8    22     6    1
     9     1     6    1
    10     1     2    1
    11     2     3    1
    12     3     4    1
    13     4     5    1
    14     4     7    1
    15     5     6    1
    16     8    12   ar
    17     8    13    1
    18     9    10   ar
    19    11     7   ar
    20    15    21   ar
    21    16    17   ar
    22    18    19   ar
    23    20    16    1
    24    29    24    1
    25    29    30    1
    26    13    15    1
    27    23    24   ar
    28    25    26   ar
    29    27    28   ar
    30     7    12   ar
    31     8     9   ar
    32    10    11   ar
    33    15    16   ar
    34    17    18   ar
    35    19    21   ar
    36    30    31    1
    37    13    14    1
