@<TRIPOS>MOLECULE
MolPort-002-774-447 36613597 CSSS00132996021 MCULE-6853413992 PubChem-44821655 ZINC000036613597 ZINC36613597
 33 36 0 0 0
SMALL
GASTEIGER

@<TRIPOS>ATOM
      1 C          13.8975   37.7671    9.3765 C.ar    1  UNL1        0.0593
      2 C          12.5265   38.0360    9.5238 C.ar    1  UNL1        0.0551
      3 C          11.4193   37.3290    9.9867 C.ar    1  UNL1        0.0821
      4 C          11.3865   35.9537   10.5531 C.3     1  UNL1        0.0540
      5 C           9.8345   40.4687    9.3675 C.3     1  UNL1        0.1554
      6 C          12.0281   39.2795    9.2490 C.ar    1  UNL1        0.1606
      7 C          14.1552   40.1185    8.7037 C.ar    1  UNL1        0.0831
      8 C          14.7113   38.8417    8.9666 C.ar    1  UNL1        0.0238
      9 N          10.3311   38.1375    9.9642 N.ar    1  UNL1       -0.1723
     10 N          10.7136   39.3209    9.5046 N.ar    1  UNL1       -0.2323
     11 N          12.8091   40.3137    8.8517 N.ar    1  UNL1       -0.2269
     12 C          15.0175   41.2394    8.2724 C.ar    1  UNL1        0.0179
     13 C          16.2904   41.4064    8.8374 C.ar    1  UNL1        0.0046
     14 C          17.1128   42.4629    8.4363 C.ar    1  UNL1        0.0369
     15 C          16.6763   43.3681    7.4648 C.ar    1  UNL1        0.1387
     16 C          15.4035   43.2063    6.8956 C.ar    1  UNL1        0.0369
     17 C          14.5816   42.1501    7.2969 C.ar    1  UNL1        0.0046
     18 C          18.1703   44.4567    5.8212 C.3     1  UNL1        0.2525
     19 O          17.5222   44.4138    7.0851 O.3     1  UNL1       -0.4714
     20 C          14.5110   36.4442    9.5883 C.2     1  UNL1        0.2508
     21 N          15.0932   35.7351    8.4880 N.am    1  UNL1       -0.2644
     22 O          14.5829   35.9776   10.7575 O.2     1  UNL1       -0.2698
     23 H          15.0637   36.1723    7.6065 H       1  UNL1        0.1566
     24 C          15.7141   34.4466    8.5569 C.ar    1  UNL1        0.1553
     25 C          17.0815   34.1989    8.5977 C.ar    1  UNL1        0.0505
     26 C          17.1269   32.8192    8.6641 C.ar    1  UNL1        0.0588
     27 C          18.3735   32.0054    8.7255 C.3     1  UNL1        0.0518
     28 N          15.8790   32.3165    8.6666 N.ar    1  UNL1       -0.2537
     29 N          15.0045   33.3035    8.5975 N.ar    1  UNL1       -0.1543
     30 C          15.5146   30.9080    8.7084 C.3     1  UNL1        0.1271
     31 C          14.7071   30.5412    7.4742 C.3     1  UNL1        0.0263
     32 C          15.1453   31.6087    5.2644 C.3     1  UNL1        0.0001
     33 C          15.5942   30.5390    6.2424 C.3     1  UNL1        0.0021
@<TRIPOS>BOND
     1    32    33    1
     2    33    31    1
     3    31    30    1
     4    30    28    1
     5    24    21    1
     6    24    25   ar
     7    20     1    1
     8     2     3   ar
     9     4     3    1
    10     5    10    1
    11     6     2   ar
    12     7    11   ar
    13     7    12    1
    14     8     1   ar
    15    13    14   ar
    16    15    19    1
    17    15    16   ar
    18    18    19    1
    19    17    12   ar
    20    26    28   ar
    21    27    26    1
    22    28    29   ar
    23    21    20   am
    24    10     9   ar
    25    10     6   ar
    26    24    29   ar
    27    20    22    2
    28     1     2   ar
    29     3     9   ar
    30     6    11   ar
    31     7     8   ar
    32    12    13   ar
    33    14    15   ar
    34    16    17   ar
    35    25    26   ar
    36    21    23    1
@<TRIPOS>MOLECULE
MolPort-002-774-447 36613597 CSSS00132996021 MCULE-6853413992 PubChem-44821655 ZINC000036613597 ZINC36613597
 33 36 0 0 0
SMALL
GASTEIGER

@<TRIPOS>ATOM
      1 C          12.3422   40.8473    9.2194 C.ar    1  UNL1        0.0593
      2 C          11.2919   41.7507    9.4530 C.ar    1  UNL1        0.0551
      3 C          10.0404   41.6840   10.0606 C.ar    1  UNL1        0.0821
      4 C           9.4176   40.5168   10.7411 C.3     1  UNL1        0.0540
      5 C          10.0902   45.1748    9.3094 C.3     1  UNL1        0.1554
      6 C          11.4211   43.0697    9.1157 C.ar    1  UNL1        0.1606
      7 C          13.6155   42.7557    8.3335 C.ar    1  UNL1        0.0831
      8 C          13.5194   41.3792    8.6570 C.ar    1  UNL1        0.0238
      9 N           9.4756   42.9166   10.0577 N.ar    1  UNL1       -0.1723
     10 N          10.3234   43.7505    9.4714 N.ar    1  UNL1       -0.2323
     11 N          12.5518   43.5827    8.5720 N.ar    1  UNL1       -0.2269
     12 C          14.8547   43.3039    7.7421 C.ar    1  UNL1        0.0179
     13 C          16.0917   43.0769    8.3632 C.ar    1  UNL1        0.0046
     14 C          17.2686   43.5910    7.8119 C.ar    1  UNL1        0.0369
     15 C          17.2277   44.3393    6.6319 C.ar    1  UNL1        0.1387
     16 C          15.9928   44.5700    6.0056 C.ar    1  UNL1        0.0369
     17 C          14.8165   44.0559    6.5571 C.ar    1  UNL1        0.0046
     18 C          18.7166   44.8188    4.7159 C.3     1  UNL1        0.2525
     19 O          18.4218   44.8396    6.1059 O.3     1  UNL1       -0.4714
     20 C          12.2684   39.4010    9.4915 C.2     1  UNL1        0.2508
     21 N          13.3419   38.5378    9.0981 N.am    1  UNL1       -0.2644
     22 O          11.2866   38.9442   10.1376 O.2     1  UNL1       -0.2698
     23 H          14.1127   38.9558    8.6505 H       1  UNL1        0.1566
     24 C          13.3931   37.1208    9.2981 C.ar    1  UNL1        0.1553
     25 C          14.3236   36.2496    8.7433 C.ar    1  UNL1        0.0505
     26 C          13.9251   35.0300    9.2571 C.ar    1  UNL1        0.0588
     27 C          14.5872   33.7251    8.9765 C.3     1  UNL1        0.0518
     28 N          12.8507   35.1929   10.0502 N.ar    1  UNL1       -0.2537
     29 N          12.5127   36.4690   10.0805 N.ar    1  UNL1       -0.1543
     30 C          12.1306   34.1435   10.7565 C.3     1  UNL1        0.1271
     31 C          11.8240   34.5868   12.1775 C.3     1  UNL1        0.0263
     32 C          10.3747   33.6326   13.9674 C.3     1  UNL1        0.0001
     33 C          10.4074   34.1977   12.5596 C.3     1  UNL1        0.0021
@<TRIPOS>BOND
     1    32    33    1
     2    33    31    1
     3    31    30    1
     4    30    28    1
     5    24    21    1
     6    24    25   ar
     7    20     1    1
     8     2     3   ar
     9     4     3    1
    10     5    10    1
    11     6     2   ar
    12     7    11   ar
    13     7    12    1
    14     8     1   ar
    15    13    14   ar
    16    15    19    1
    17    15    16   ar
    18    18    19    1
    19    17    12   ar
    20    26    28   ar
    21    27    26    1
    22    28    29   ar
    23    21    20   am
    24    10     9   ar
    25    10     6   ar
    26    24    29   ar
    27    20    22    2
    28     1     2   ar
    29     3     9   ar
    30     6    11   ar
    31     7     8   ar
    32    12    13   ar
    33    14    15   ar
    34    16    17   ar
    35    25    26   ar
    36    21    23    1
@<TRIPOS>MOLECULE
MolPort-002-774-447 36613597 CSSS00132996021 MCULE-6853413992 PubChem-44821655 ZINC000036613597 ZINC36613597
 33 36 0 0 0
SMALL
GASTEIGER

@<TRIPOS>ATOM
      1 C          14.2155   38.1564    9.0600 C.ar    1  UNL1        0.0593
      2 C          13.0603   37.7569    9.7525 C.ar    1  UNL1        0.0551
      3 C          11.8835   38.3781   10.1639 C.ar    1  UNL1        0.0821
      4 C          11.4608   39.7837    9.9212 C.3     1  UNL1        0.0540
      5 C          11.1311   35.0484   11.2125 C.3     1  UNL1        0.1554
      6 C          12.8818   36.4494   10.1115 C.ar    1  UNL1        0.1606
      7 C          14.9118   35.7986    9.1208 C.ar    1  UNL1        0.0831
      8 C          15.1418   37.1442    8.7401 C.ar    1  UNL1        0.0238
      9 N          11.0726   37.4599   10.7450 N.ar    1  UNL1       -0.1723
     10 N          11.6961   36.2901   10.7145 N.ar    1  UNL1       -0.2323
     11 N          13.7732   35.4747    9.8071 N.ar    1  UNL1       -0.2269
     12 C          15.8909   34.7439    8.7818 C.ar    1  UNL1        0.0179
     13 C          15.4542   33.4391    8.5088 C.ar    1  UNL1        0.0046
     14 C          16.3720   32.4353    8.1875 C.ar    1  UNL1        0.0369
     15 C          17.7395   32.7195    8.1337 C.ar    1  UNL1        0.1387
     16 C          18.1828   34.0233    8.4058 C.ar    1  UNL1        0.0369
     17 C          17.2650   35.0265    8.7271 C.ar    1  UNL1        0.0046
     18 C          18.2419   30.5401    7.0774 C.3     1  UNL1        0.2525
     19 O          18.6318   31.6940    7.8094 O.3     1  UNL1       -0.4714
     20 C          14.5206   39.5497    8.6898 C.2     1  UNL1        0.2508
     21 N          15.8402   40.0737    8.8802 N.am    1  UNL1       -0.2644
     22 O          13.6296   40.2504    8.1374 O.2     1  UNL1       -0.2698
     23 H          16.5144   39.4646    9.2592 H       1  UNL1        0.1566
     24 C          16.2656   41.4049    8.5679 C.ar    1  UNL1        0.1553
     25 C          17.4053   42.0346    9.0548 C.ar    1  UNL1        0.0505
     26 C          17.3389   43.2727    8.4440 C.ar    1  UNL1        0.0588
     27 C          18.3314   44.3697    8.6220 C.3     1  UNL1        0.0518
     28 N          16.2461   43.3431    7.6626 N.ar    1  UNL1       -0.2537
     29 N          15.5781   42.2062    7.7329 N.ar    1  UNL1       -0.1543
     30 C          15.8208   44.4890    6.8723 C.3     1  UNL1        0.1271
     31 C          16.1104   44.2442    5.4006 C.3     1  UNL1        0.0263
     32 C          13.6466   43.9253    5.6063 C.3     1  UNL1        0.0001
     33 C          14.8340   43.8828    4.6627 C.3     1  UNL1        0.0021
@<TRIPOS>BOND
     1    32    33    1
     2    33    31    1
     3    31    30    1
     4    30    28    1
     5    24    21    1
     6    24    25   ar
     7    20     1    1
     8     2     3   ar
     9     4     3    1
    10     5    10    1
    11     6     2   ar
    12     7    11   ar
    13     7    12    1
    14     8     1   ar
    15    13    14   ar
    16    15    19    1
    17    15    16   ar
    18    18    19    1
    19    17    12   ar
    20    26    28   ar
    21    27    26    1
    22    28    29   ar
    23    21    20   am
    24    10     9   ar
    25    10     6   ar
    26    24    29   ar
    27    20    22    2
    28     1     2   ar
    29     3     9   ar
    30     6    11   ar
    31     7     8   ar
    32    12    13   ar
    33    14    15   ar
    34    16    17   ar
    35    25    26   ar
    36    21    23    1
@<TRIPOS>MOLECULE
MolPort-002-774-447 36613597 CSSS00132996021 MCULE-6853413992 PubChem-44821655 ZINC000036613597 ZINC36613597
 33 36 0 0 0
SMALL
GASTEIGER

@<TRIPOS>ATOM
      1 C          10.6917   40.6336    9.6173 C.ar    1  UNL1        0.0593
      2 C          11.5827   41.5365    9.0134 C.ar    1  UNL1        0.0551
      3 C          11.6111   42.9128    8.8013 C.ar    1  UNL1        0.0821
      4 C          10.6124   43.9245    9.2402 C.3     1  UNL1        0.0540
      5 C          14.8276   42.0969    7.4819 C.3     1  UNL1        0.1554
      6 C          12.7898   41.1076    8.5349 C.ar    1  UNL1        0.1606
      7 C          12.3877   38.8966    9.2246 C.ar    1  UNL1        0.0831
      8 C          11.1229   39.2965    9.7233 C.ar    1  UNL1        0.0238
      9 N          12.7855   43.2506    8.2138 N.ar    1  UNL1       -0.1723
     10 N          13.4913   42.1404    8.0490 N.ar    1  UNL1       -0.2323
     11 N          13.2051   39.8210    8.6334 N.ar    1  UNL1       -0.2269
     12 C          12.8303   37.4906    9.3391 C.ar    1  UNL1        0.0179
     13 C          14.0293   37.0786    8.7389 C.ar    1  UNL1        0.0046
     14 C          14.4560   35.7517    8.8415 C.ar    1  UNL1        0.0369
     15 C          13.6918   34.8164    9.5452 C.ar    1  UNL1        0.1387
     16 C          12.4911   35.2225   10.1481 C.ar    1  UNL1        0.0369
     17 C          12.0648   36.5491   10.0453 C.ar    1  UNL1        0.0046
     18 C          14.5566   32.7525    8.4915 C.3     1  UNL1        0.2525
     19 O          14.1457   33.4974    9.6297 O.3     1  UNL1       -0.4714
     20 C           9.3478   40.9936   10.1027 C.2     1  UNL1        0.2508
     21 N           8.2754   41.1932    9.1740 N.am    1  UNL1       -0.2644
     22 O           9.1355   41.0516   11.3443 O.2     1  UNL1       -0.2698
     23 H           8.4817   41.0758    8.2186 H       1  UNL1        0.1566
     24 C           6.9301   41.5483    9.5124 C.ar    1  UNL1        0.1553
     25 C           6.1288   42.4583    8.8322 C.ar    1  UNL1        0.0505
     26 C           4.9552   42.4162    9.5609 C.ar    1  UNL1        0.0588
     27 C           3.7343   43.2174    9.2649 C.3     1  UNL1        0.0518
     28 N           5.0750   41.5436   10.5778 N.ar    1  UNL1       -0.2537
     29 N           6.2819   41.0081   10.5612 N.ar    1  UNL1       -0.1543
     30 C           4.0621   41.2359   11.5767 C.3     1  UNL1        0.1271
     31 C           3.1175   42.4149   11.7422 C.3     1  UNL1        0.0263
     32 C           1.1507   42.8596   13.2080 C.3     1  UNL1        0.0001
     33 C           1.7390   41.9348   12.1588 C.3     1  UNL1        0.0021
@<TRIPOS>BOND
     1    32    33    1
     2    33    31    1
     3    31    30    1
     4    30    28    1
     5    24    21    1
     6    24    25   ar
     7    20     1    1
     8     2     3   ar
     9     4     3    1
    10     5    10    1
    11     6     2   ar
    12     7    11   ar
    13     7    12    1
    14     8     1   ar
    15    13    14   ar
    16    15    19    1
    17    15    16   ar
    18    18    19    1
    19    17    12   ar
    20    26    28   ar
    21    27    26    1
    22    28    29   ar
    23    21    20   am
    24    10     9   ar
    25    10     6   ar
    26    24    29   ar
    27    20    22    2
    28     1     2   ar
    29     3     9   ar
    30     6    11   ar
    31     7     8   ar
    32    12    13   ar
    33    14    15   ar
    34    16    17   ar
    35    25    26   ar
    36    21    23    1
@<TRIPOS>MOLECULE
MolPort-002-774-447 36613597 CSSS00132996021 MCULE-6853413992 PubChem-44821655 ZINC000036613597 ZINC36613597
 33 36 0 0 0
SMALL
GASTEIGER

@<TRIPOS>ATOM
      1 C           9.6546   41.4599    6.9018 C.ar    1  UNL1        0.0593
      2 C           9.6088   40.3501    6.0416 C.ar    1  UNL1        0.0551
      3 C           8.6083   39.5169    5.5469 C.ar    1  UNL1        0.0821
      4 C           7.1431   39.6072    5.7890 C.3     1  UNL1        0.0540
      5 C          11.3781   38.1632    3.7446 C.3     1  UNL1        0.1554
      6 C          10.7396   39.9140    5.4081 C.ar    1  UNL1        0.1606
      7 C          12.0478   41.6200    6.3587 C.ar    1  UNL1        0.0831
      8 C          10.9028   42.0979    7.0436 C.ar    1  UNL1        0.0238
      9 N           9.1529   38.6335    4.6743 N.ar    1  UNL1       -0.1723
     10 N          10.4537   38.8804    4.6050 N.ar    1  UNL1       -0.2323
     11 N          11.9418   40.5247    5.5455 N.ar    1  UNL1       -0.2269
     12 C          13.3535   42.2956    6.5154 C.ar    1  UNL1        0.0179
     13 C          13.6593   43.4252    5.7421 C.ar    1  UNL1        0.0046
     14 C          14.8909   44.0706    5.8830 C.ar    1  UNL1        0.0369
     15 C          15.8355   43.5977    6.7984 C.ar    1  UNL1        0.1387
     16 C          15.5355   42.4676    7.5751 C.ar    1  UNL1        0.0369
     17 C          14.3042   41.8227    7.4339 C.ar    1  UNL1        0.0046
     18 C          18.0055   43.9588    7.9291 C.3     1  UNL1        0.2525
     19 O          17.0577   44.2651    6.9157 O.3     1  UNL1       -0.4714
     20 C           8.5029   41.9597    7.6733 C.2     1  UNL1        0.2508
     21 N           7.3669   42.5113    6.9969 N.am    1  UNL1       -0.2644
     22 O           8.4974   41.8296    8.9275 O.2     1  UNL1       -0.2698
     23 H           7.3976   42.5335    6.0131 H       1  UNL1        0.1566
     24 C           6.1907   43.0334    7.6249 C.ar    1  UNL1        0.1553
     25 C           5.4621   44.1404    7.2048 C.ar    1  UNL1        0.0505
     26 C           4.4482   44.1960    8.1424 C.ar    1  UNL1        0.0588
     27 C           3.3618   45.2155    8.1694 C.3     1  UNL1        0.0518
     28 N           4.5841   43.1929    9.0284 N.ar    1  UNL1       -0.2537
     29 N           5.6503   42.4756    8.7244 N.ar    1  UNL1       -0.1543
     30 C           3.7247   42.9280   10.1729 C.3     1  UNL1        0.1271
     31 C           2.8817   41.6897    9.9168 C.3     1  UNL1        0.0263
     32 C           3.9816   40.2991   11.6691 C.3     1  UNL1        0.0001
     33 C           3.6902   40.4335   10.1862 C.3     1  UNL1        0.0021
@<TRIPOS>BOND
     1    32    33    1
     2    33    31    1
     3    31    30    1
     4    30    28    1
     5    24    21    1
     6    24    25   ar
     7    20     1    1
     8     2     3   ar
     9     4     3    1
    10     5    10    1
    11     6     2   ar
    12     7    11   ar
    13     7    12    1
    14     8     1   ar
    15    13    14   ar
    16    15    19    1
    17    15    16   ar
    18    18    19    1
    19    17    12   ar
    20    26    28   ar
    21    27    26    1
    22    28    29   ar
    23    21    20   am
    24    10     9   ar
    25    10     6   ar
    26    24    29   ar
    27    20    22    2
    28     1     2   ar
    29     3     9   ar
    30     6    11   ar
    31     7     8   ar
    32    12    13   ar
    33    14    15   ar
    34    16    17   ar
    35    25    26   ar
    36    21    23    1
@<TRIPOS>MOLECULE
MolPort-002-774-447 36613597 CSSS00132996021 MCULE-6853413992 PubChem-44821655 ZINC000036613597 ZINC36613597
 33 36 0 0 0
SMALL
GASTEIGER

@<TRIPOS>ATOM
      1 C           8.8745   41.4488    9.4218 C.ar    1  UNL1        0.0593
      2 C           8.7241   41.8154    8.0740 C.ar    1  UNL1        0.0551
      3 C           9.5627   41.8874    6.9641 C.ar    1  UNL1        0.0821
      4 C          11.0010   41.5163    6.8818 C.3     1  UNL1        0.0540
      5 C           6.4859   42.7558    5.3730 C.3     1  UNL1        0.1554
      6 C           7.4925   42.1367    7.5738 C.ar    1  UNL1        0.1606
      7 C           6.4414   41.7341    9.6375 C.ar    1  UNL1        0.0831
      8 C           7.7002   41.4050   10.1991 C.ar    1  UNL1        0.0238
      9 N           8.8363   42.2475    5.8774 N.ar    1  UNL1       -0.1723
     10 N           7.5777   42.4047    6.2639 N.ar    1  UNL1       -0.2323
     11 N           6.3621   42.0979    8.3208 N.ar    1  UNL1       -0.2269
     12 C           5.2151   41.6867   10.4621 C.ar    1  UNL1        0.0179
     13 C           4.2298   42.6744   10.3162 C.ar    1  UNL1        0.0046
     14 C           3.0673   42.6381   11.0911 C.ar    1  UNL1        0.0369
     15 C           2.8713   41.6150   12.0231 C.ar    1  UNL1        0.1387
     16 C           3.8536   40.6237   12.1737 C.ar    1  UNL1        0.0369
     17 C           5.0157   40.6603   11.3989 C.ar    1  UNL1        0.0046
     18 C           1.0022   42.7950   13.1330 C.3     1  UNL1        0.2525
     19 O           1.6982   41.6067   12.7826 O.3     1  UNL1       -0.4714
     20 C          10.1681   41.1489   10.0606 C.2     1  UNL1        0.2508
     21 N          11.2506   40.6220    9.2841 N.am    1  UNL1       -0.2644
     22 O          10.3341   41.4290   11.2788 O.2     1  UNL1       -0.2698
     23 H          11.0860   40.4790    8.3241 H       1  UNL1        0.1566
     24 C          12.5507   40.2851    9.7807 C.ar    1  UNL1        0.1553
     25 C          12.8221   39.5073   10.9005 C.ar    1  UNL1        0.0505
     26 C          14.2041   39.4952   10.9201 C.ar    1  UNL1        0.0588
     27 C          15.0399   38.7950   11.9357 C.3     1  UNL1        0.0518
     28 N          14.6860   40.2081    9.8860 N.ar    1  UNL1       -0.2537
     29 N          13.6829   40.7004    9.1825 N.ar    1  UNL1       -0.1543
     30 C          16.0888   40.4446    9.5783 C.3     1  UNL1        0.1271
     31 C          16.2214   41.6080    8.6094 C.3     1  UNL1        0.0263
     32 C          17.7874   43.5091    8.2252 C.3     1  UNL1        0.0001
     33 C          17.6768   42.0153    8.4670 C.3     1  UNL1        0.0021
@<TRIPOS>BOND
     1    32    33    1
     2    33    31    1
     3    31    30    1
     4    30    28    1
     5    24    21    1
     6    24    25   ar
     7    20     1    1
     8     2     3   ar
     9     4     3    1
    10     5    10    1
    11     6     2   ar
    12     7    11   ar
    13     7    12    1
    14     8     1   ar
    15    13    14   ar
    16    15    19    1
    17    15    16   ar
    18    18    19    1
    19    17    12   ar
    20    26    28   ar
    21    27    26    1
    22    28    29   ar
    23    21    20   am
    24    10     9   ar
    25    10     6   ar
    26    24    29   ar
    27    20    22    2
    28     1     2   ar
    29     3     9   ar
    30     6    11   ar
    31     7     8   ar
    32    12    13   ar
    33    14    15   ar
    34    16    17   ar
    35    25    26   ar
    36    21    23    1
@<TRIPOS>MOLECULE
MolPort-002-774-447 36613597 CSSS00132996021 MCULE-6853413992 PubChem-44821655 ZINC000036613597 ZINC36613597
 33 36 0 0 0
SMALL
GASTEIGER

@<TRIPOS>ATOM
      1 C          10.6441   40.7914    9.9866 C.ar    1  UNL1        0.0593
      2 C          10.5095   40.8570   11.3835 C.ar    1  UNL1        0.0551
      3 C          11.2921   40.4897   12.4756 C.ar    1  UNL1        0.0821
      4 C          12.6564   39.8964   12.4621 C.3     1  UNL1        0.0540
      5 C           8.5962   42.0321   14.2379 C.3     1  UNL1        0.1554
      6 C           9.4255   41.4689   11.9499 C.ar    1  UNL1        0.1606
      7 C           8.5306   42.0416    9.8530 C.ar    1  UNL1        0.0831
      8 C           9.6314   41.4074    9.2250 C.ar    1  UNL1        0.0238
      9 N          10.6699   40.8685   13.6192 N.ar    1  UNL1       -0.1723
     10 N           9.5294   41.4565   13.2855 N.ar    1  UNL1       -0.2323
     11 N           8.4489   42.0595   11.2187 N.ar    1  UNL1       -0.2269
     12 C           7.4721   42.6838    9.0448 C.ar    1  UNL1        0.0179
     13 C           6.1277   42.5733    9.4296 C.ar    1  UNL1        0.0046
     14 C           5.1200   43.1767    8.6721 C.ar    1  UNL1        0.0369
     15 C           5.4398   43.8996    7.5193 C.ar    1  UNL1        0.1387
     16 C           6.7833   44.0138    7.1290 C.ar    1  UNL1        0.0369
     17 C           7.7904   43.4104    7.8865 C.ar    1  UNL1        0.0046
     18 C           3.3995   45.2912    7.3832 C.3     1  UNL1        0.2525
     19 O           4.4094   44.4912    6.7837 O.3     1  UNL1       -0.4714
     20 C          11.7429   40.0989    9.2906 C.2     1  UNL1        0.2508
     21 N          12.5206   39.1101    9.9760 N.am    1  UNL1       -0.2644
     22 O          11.9429   40.3327    8.0678 O.2     1  UNL1       -0.2698
     23 H          12.2828   38.9223   10.9127 H       1  UNL1        0.1566
     24 C          13.6132   38.3706    9.4193 C.ar    1  UNL1        0.1553
     25 C          13.5128   37.3196    8.5149 C.ar    1  UNL1        0.0505
     26 C          14.8375   36.9828    8.3098 C.ar    1  UNL1        0.0588
     27 C          15.3149   35.8929    7.4130 C.3     1  UNL1        0.0518
     28 N          15.6351   37.7847    9.0382 N.ar    1  UNL1       -0.2537
     29 N          14.8967   38.6369    9.7254 N.ar    1  UNL1       -0.1543
     30 C          17.0880   37.7295    9.1045 C.3     1  UNL1        0.1271
     31 C          17.5242   36.8502   10.2649 C.3     1  UNL1        0.0263
     32 C          19.2988   38.5955   10.1262 C.3     1  UNL1        0.0001
     33 C          18.8767   37.2977   10.7891 C.3     1  UNL1        0.0021
@<TRIPOS>BOND
     1    32    33    1
     2    33    31    1
     3    31    30    1
     4    30    28    1
     5    24    21    1
     6    24    25   ar
     7    20     1    1
     8     2     3   ar
     9     4     3    1
    10     5    10    1
    11     6     2   ar
    12     7    11   ar
    13     7    12    1
    14     8     1   ar
    15    13    14   ar
    16    15    19    1
    17    15    16   ar
    18    18    19    1
    19    17    12   ar
    20    26    28   ar
    21    27    26    1
    22    28    29   ar
    23    21    20   am
    24    10     9   ar
    25    10     6   ar
    26    24    29   ar
    27    20    22    2
    28     1     2   ar
    29     3     9   ar
    30     6    11   ar
    31     7     8   ar
    32    12    13   ar
    33    14    15   ar
    34    16    17   ar
    35    25    26   ar
    36    21    23    1
@<TRIPOS>MOLECULE
MolPort-002-774-447 36613597 CSSS00132996021 MCULE-6853413992 PubChem-44821655 ZINC000036613597 ZINC36613597
 33 36 0 0 0
SMALL
GASTEIGER

@<TRIPOS>ATOM
      1 C          14.2060   40.8342    8.5196 C.ar    1  UNL1        0.0593
      2 C          14.8839   41.9126    7.9271 C.ar    1  UNL1        0.0551
      3 C          14.5086   43.0870    7.2789 C.ar    1  UNL1        0.0821
      4 C          13.1319   43.5997    7.0443 C.3     1  UNL1        0.0540
      5 C          18.0449   43.5842    7.2920 C.3     1  UNL1        0.1554
      6 C          16.2476   41.9953    7.9885 C.ar    1  UNL1        0.1606
      7 C          16.4088   40.0124    9.2407 C.ar    1  UNL1        0.0831
      8 C          14.9985   39.8820    9.1907 C.ar    1  UNL1        0.0238
      9 N          15.6185   43.8035    6.9736 N.ar    1  UNL1       -0.1723
     10 N          16.6722   43.1233    7.4037 N.ar    1  UNL1       -0.2323
     11 N          17.0119   41.0787    8.6312 N.ar    1  UNL1       -0.2269
     12 C          17.2319   39.0069    9.9461 C.ar    1  UNL1        0.0179
     13 C          16.6183   37.9302   10.6032 C.ar    1  UNL1        0.0046
     14 C          17.3878   36.9747   11.2728 C.ar    1  UNL1        0.0369
     15 C          18.7814   37.0801   11.2959 C.ar    1  UNL1        0.1387
     16 C          19.4014   38.1552   10.6401 C.ar    1  UNL1        0.0369
     17 C          18.6318   39.1103    9.9709 C.ar    1  UNL1        0.0046
     18 C          19.6508   34.7738   11.5035 C.3     1  UNL1        0.2525
     19 O          19.5226   36.1085   11.9739 O.3     1  UNL1       -0.4714
     20 C          12.7483   40.6308    8.4486 C.2     1  UNL1        0.2508
     21 N          11.8597   41.5528    9.0909 N.am    1  UNL1       -0.2644
     22 O          12.2910   39.6807    7.7571 O.2     1  UNL1       -0.2698
     23 H          12.2679   42.3119    9.5667 H       1  UNL1        0.1566
     24 C          10.4303   41.4683    9.1020 C.ar    1  UNL1        0.1553
     25 C           9.6313   40.9900    8.0698 C.ar    1  UNL1        0.0505
     26 C           8.3609   41.1230    8.5977 C.ar    1  UNL1        0.0588
     27 C           7.0992   40.7541    7.8962 C.3     1  UNL1        0.0518
     28 N           8.4293   41.6339    9.8403 N.ar    1  UNL1       -0.2537
     29 N           9.6917   41.8534   10.1594 N.ar    1  UNL1       -0.1543
     30 C           7.3048   41.9375   10.7132 C.3     1  UNL1        0.1271
     31 C           7.7830   42.0828   12.1485 C.3     1  UNL1        0.0263
     32 C           9.1666   41.0690   13.9574 C.3     1  UNL1        0.0001
     33 C           8.6695   40.9119   12.5325 C.3     1  UNL1        0.0021
@<TRIPOS>BOND
     1    32    33    1
     2    33    31    1
     3    31    30    1
     4    30    28    1
     5    24    21    1
     6    24    25   ar
     7    20     1    1
     8     2     3   ar
     9     4     3    1
    10     5    10    1
    11     6     2   ar
    12     7    11   ar
    13     7    12    1
    14     8     1   ar
    15    13    14   ar
    16    15    19    1
    17    15    16   ar
    18    18    19    1
    19    17    12   ar
    20    26    28   ar
    21    27    26    1
    22    28    29   ar
    23    21    20   am
    24    10     9   ar
    25    10     6   ar
    26    24    29   ar
    27    20    22    2
    28     1     2   ar
    29     3     9   ar
    30     6    11   ar
    31     7     8   ar
    32    12    13   ar
    33    14    15   ar
    34    16    17   ar
    35    25    26   ar
    36    21    23    1
@<TRIPOS>MOLECULE
MolPort-002-774-447 36613597 CSSS00132996021 MCULE-6853413992 PubChem-44821655 ZINC000036613597 ZINC36613597
 33 36 0 0 0
SMALL
GASTEIGER

@<TRIPOS>ATOM
      1 C           9.6407   41.3981    6.8781 C.ar    1  UNL1        0.0593
      2 C           9.6243   40.3039    5.9971 C.ar    1  UNL1        0.0551
      3 C           8.6462   39.4543    5.4857 C.ar    1  UNL1        0.0821
      4 C           7.1791   39.5019    5.7277 C.3     1  UNL1        0.0540
      5 C          11.4516   38.2073    3.6615 C.3     1  UNL1        0.1554
      6 C          10.7665   39.9093    5.3568 C.ar    1  UNL1        0.1606
      7 C          12.0292   41.6307    6.3408 C.ar    1  UNL1        0.0831
      8 C          10.8717   42.0656    7.0332 C.ar    1  UNL1        0.0238
      9 N           9.2142   38.6020    4.5973 N.ar    1  UNL1       -0.1723
     10 N          10.5083   38.8839    4.5342 N.ar    1  UNL1       -0.2323
     11 N          11.9523   40.5485    5.5071 N.ar    1  UNL1       -0.2269
     12 C          13.3168   42.3369    6.5117 C.ar    1  UNL1        0.0179
     13 C          14.2883   41.8284    7.3865 C.ar    1  UNL1        0.0046
     14 C          15.5084   42.4888    7.5548 C.ar    1  UNL1        0.0369
     15 C          15.7767   43.6669    6.8519 C.ar    1  UNL1        0.1387
     16 C          14.8087   44.1809    5.9751 C.ar    1  UNL1        0.0369
     17 C          13.5889   43.5204    5.8071 C.ar    1  UNL1        0.0046
     18 C          17.9532   43.8709    8.0092 C.3     1  UNL1        0.2525
     19 O          17.0062   44.3035    7.0421 O.3     1  UNL1       -0.4714
     20 C           8.4758   41.8532    7.6574 C.2     1  UNL1        0.2508
     21 N           7.3238   42.3818    6.9898 N.am    1  UNL1       -0.2644
     22 O           8.4752   41.7045    8.9096 O.2     1  UNL1       -0.2698
     23 H           7.3529   42.4193    6.0065 H       1  UNL1        0.1566
     24 C           6.1336   42.8605    7.6261 C.ar    1  UNL1        0.1553
     25 C           5.5066   44.0764    7.3790 C.ar    1  UNL1        0.0505
     26 C           4.4261   44.0284    8.2395 C.ar    1  UNL1        0.0588
     27 C           3.4023   45.1006    8.3891 C.3     1  UNL1        0.0518
     28 N           4.4323   42.8697    8.9230 N.ar    1  UNL1       -0.2537
     29 N           5.4757   42.1470    8.5589 N.ar    1  UNL1       -0.1543
     30 C           3.4704   42.4578    9.9347 C.3     1  UNL1        0.1271
     31 C           4.1867   41.7754   11.0884 C.3     1  UNL1        0.0263
     32 C           6.5127   41.1292   11.7100 C.3     1  UNL1        0.0001
     33 C           5.6314   42.2357   11.1613 C.3     1  UNL1        0.0021
@<TRIPOS>BOND
     1    32    33    1
     2    33    31    1
     3    31    30    1
     4    30    28    1
     5    24    21    1
     6    24    25   ar
     7    20     1    1
     8     2     3   ar
     9     4     3    1
    10     5    10    1
    11     6     2   ar
    12     7    11   ar
    13     7    12    1
    14     8     1   ar
    15    13    14   ar
    16    15    19    1
    17    15    16   ar
    18    18    19    1
    19    17    12   ar
    20    26    28   ar
    21    27    26    1
    22    28    29   ar
    23    21    20   am
    24    10     9   ar
    25    10     6   ar
    26    24    29   ar
    27    20    22    2
    28     1     2   ar
    29     3     9   ar
    30     6    11   ar
    31     7     8   ar
    32    12    13   ar
    33    14    15   ar
    34    16    17   ar
    35    25    26   ar
    36    21    23    1
@<TRIPOS>MOLECULE
MolPort-002-774-447 36613597 CSSS00132996021 MCULE-6853413992 PubChem-44821655 ZINC000036613597 ZINC36613597
 33 36 0 0 0
SMALL
GASTEIGER

@<TRIPOS>ATOM
      1 C          13.9216   38.7051    8.6591 C.ar    1  UNL1        0.0593
      2 C          12.5371   38.6759    8.8956 C.ar    1  UNL1        0.0551
      3 C          11.6525   37.7933    9.5109 C.ar    1  UNL1        0.0821
      4 C          11.9715   36.5136   10.1994 C.3     1  UNL1        0.0540
      5 C           9.3533   40.4168    8.7465 C.3     1  UNL1        0.1554
      6 C          11.7503   39.7405    8.5526 C.ar    1  UNL1        0.1606
      7 C          13.5902   40.9694    7.7586 C.ar    1  UNL1        0.0831
      8 C          14.4400   39.8841    8.0878 C.ar    1  UNL1        0.0238
      9 N          10.4082   38.3319    9.5067 N.ar    1  UNL1       -0.1723
     10 N          10.4796   39.5149    8.9123 N.ar    1  UNL1       -0.2323
     11 N          12.2468   40.8744    8.0003 N.ar    1  UNL1       -0.2269
     12 C          14.1436   42.2018    7.1578 C.ar    1  UNL1        0.0179
     13 C          14.8395   43.1227    7.9549 C.ar    1  UNL1        0.0046
     14 C          15.3663   44.2904    7.3962 C.ar    1  UNL1        0.0369
     15 C          15.2061   44.5559    6.0332 C.ar    1  UNL1        0.1387
     16 C          14.5107   43.6383    5.2303 C.ar    1  UNL1        0.0369
     17 C          13.9842   42.4710    5.7892 C.ar    1  UNL1        0.0046
     18 C          17.0712   45.8109    5.0016 C.3     1  UNL1        0.2525
     19 O          15.7446   45.7322    5.5048 O.3     1  UNL1       -0.4714
     20 C          14.8347   37.5823    8.9370 C.2     1  UNL1        0.2508
     21 N          16.0557   37.8062    9.6520 N.am    1  UNL1       -0.2644
     22 O          14.4954   36.4144    8.6039 O.2     1  UNL1       -0.2698
     23 H          16.2430   38.7280    9.9424 H       1  UNL1        0.1566
     24 C          17.0278   36.8078    9.9819 C.ar    1  UNL1        0.1553
     25 C          17.8328   36.7931   11.1152 C.ar    1  UNL1        0.0505
     26 C          18.5627   35.6326   10.9404 C.ar    1  UNL1        0.0588
     27 C          19.6005   35.1239   11.8808 C.3     1  UNL1        0.0518
     28 N          18.1983   35.0269    9.7958 N.ar    1  UNL1       -0.2537
     29 N          17.2612   35.7391    9.1974 N.ar    1  UNL1       -0.1543
     30 C          18.7513   33.7932    9.2566 C.3     1  UNL1        0.1271
     31 C          17.6854   33.0405    8.4774 C.3     1  UNL1        0.0263
     32 C          15.2164   32.8240    8.2105 C.3     1  UNL1        0.0001
     33 C          16.3533   33.7626    8.5690 C.3     1  UNL1        0.0021
@<TRIPOS>BOND
     1    32    33    1
     2    33    31    1
     3    31    30    1
     4    30    28    1
     5    24    21    1
     6    24    25   ar
     7    20     1    1
     8     2     3   ar
     9     4     3    1
    10     5    10    1
    11     6     2   ar
    12     7    11   ar
    13     7    12    1
    14     8     1   ar
    15    13    14   ar
    16    15    19    1
    17    15    16   ar
    18    18    19    1
    19    17    12   ar
    20    26    28   ar
    21    27    26    1
    22    28    29   ar
    23    21    20   am
    24    10     9   ar
    25    10     6   ar
    26    24    29   ar
    27    20    22    2
    28     1     2   ar
    29     3     9   ar
    30     6    11   ar
    31     7     8   ar
    32    12    13   ar
    33    14    15   ar
    34    16    17   ar
    35    25    26   ar
    36    21    23    1
