@<TRIPOS>MOLECULE
MolPort-005-073-513 CSSS00159770980 MCULE-7872540700 PubChem-45207133
 29 31 0 0 0
SMALL
GASTEIGER

@<TRIPOS>ATOM
      1 C          12.6889   41.4452    9.2004 C.3     1  UNL1        0.1093
      2 C          11.6696   40.8430   10.1736 C.3     1  UNL1        0.0418
      3 C          11.5248   39.3391    9.9521 C.3     1  UNL1        0.0741
      4 C          13.7011   39.1487    8.9977 C.3     1  UNL1        0.0741
      5 C          13.9900   40.6390    9.1688 C.3     1  UNL1        0.0418
      6 N          12.8315   38.6794   10.0768 N.3     1  UNL1       -0.2735
      7 C          12.7088   42.2464    6.8363 C.ar    1  UNL1        0.1325
      8 C          11.9028   42.1715    5.7160 C.ar    1  UNL1        0.0565
      9 C          10.8099   41.4328    6.1560 C.ar    1  UNL1        0.1230
     10 N          10.9762   41.1020    7.4545 N.ar    1  UNL1       -0.1666
     11 N          12.1292   41.6028    7.8591 N.ar    1  UNL1       -0.2394
     12 C          14.3724   44.0554    6.1645 C.2     1  UNL1        0.2271
     13 O          13.6413   44.5084    5.2452 O.2     1  UNL1       -0.2747
     14 N          13.9711   42.9175    6.9369 N.am    1  UNL1       -0.2695
     15 H          14.6170   42.5669    7.5920 H       1  UNL1        0.1562
     16 C          15.6910   44.6956    6.4323 C.3     1  UNL1        0.0854
     17 C          17.8312   43.7593    5.6180 C.3     1  UNL1        0.0005
     18 C          16.7574   43.6427    6.6766 C.3     1  UNL1        0.0091
     19 C          17.3805   43.8424    8.0439 C.3     1  UNL1        0.0005
     20 C          12.7126   37.2179    9.9550 C.3     1  UNL1        0.0619
     21 C          11.3017   36.6642   10.1750 C.3     1  UNL1        0.0177
     22 C          13.7933   36.4705   10.7449 C.3     1  UNL1        0.0423
     23 C          15.1153   37.1710   10.7831 C.ar    1  UNL1       -0.0207
     24 C          16.0966   36.8437    9.8403 C.ar    1  UNL1       -0.0019
     25 C          17.3425   37.4777    9.8758 C.ar    1  UNL1        0.0293
     26 C          17.6127   38.4350   10.8577 C.ar    1  UNL1        0.1401
     27 C          16.6395   38.7550   11.8079 C.ar    1  UNL1        0.0293
     28 C          15.3938   38.1204   11.7734 C.ar    1  UNL1       -0.0019
     29 F          18.8153   39.0563   10.8870 F       1  UNL1       -0.2042
@<TRIPOS>BOND
     1    17    18    1
     2    18    19    1
     3    18    16    1
     4    16    12    1
     5    12    14   am
     6     8     9   ar
     7     1    11    1
     8     1     2    1
     9     2     3    1
    10     3     6    1
    11     4     6    1
    12     4     5    1
    13     5     1    1
    14    20     6    1
    15    20    21    1
    16    20    22    1
    17    22    23    1
    18    24    25   ar
    19    26    29    1
    20    26    27   ar
    21    28    23   ar
    22    14     7    1
    23    11    10   ar
    24    11     7   ar
    25    12    13    2
    26     7     8   ar
    27     9    10   ar
    28    23    24   ar
    29    25    26   ar
    30    27    28   ar
    31    14    15    1
@<TRIPOS>MOLECULE
MolPort-005-073-513 CSSS00159770980 MCULE-7872540700 PubChem-45207133
 29 31 0 0 0
SMALL
GASTEIGER

@<TRIPOS>ATOM
      1 C          11.8005   41.2848    9.4223 C.3     1  UNL1        0.1093
      2 C          10.7767   40.4735   10.2238 C.3     1  UNL1        0.0418
      3 C          10.9559   38.9764    9.9825 C.3     1  UNL1        0.0741
      4 C          13.2492   39.2259    9.3812 C.3     1  UNL1        0.0741
      5 C          13.2202   40.7381    9.5952 C.3     1  UNL1        0.0418
      6 N          12.3290   38.5701   10.3106 N.3     1  UNL1       -0.2735
      7 C          12.2887   41.4472    6.9797 C.ar    1  UNL1        0.1325
      8 C          11.5874   41.4940    5.7895 C.ar    1  UNL1        0.0565
      9 C          10.2592   41.4386    6.1974 C.ar    1  UNL1        0.1230
     10 N          10.1986   41.3650    7.5443 N.ar    1  UNL1       -0.1666
     11 N          11.4344   41.3743    8.0099 N.ar    1  UNL1       -0.2394
     12 C          14.5250   42.6656    7.0558 C.2     1  UNL1        0.2271
     13 O          14.0269   43.7801    6.7479 O.2     1  UNL1       -0.2747
     14 N          13.7129   41.4880    7.1339 N.am    1  UNL1       -0.2695
     15 H          14.1719   40.6347    7.3083 H       1  UNL1        0.1562
     16 C          15.9892   42.5652    7.3128 C.3     1  UNL1        0.0854
     17 C          17.6365   44.1152    8.3148 C.3     1  UNL1        0.0005
     18 C          16.6497   43.9264    7.1844 C.3     1  UNL1        0.0091
     19 C          17.3818   44.0254    5.8608 C.3     1  UNL1        0.0005
     20 C          12.5099   37.1164   10.1720 C.3     1  UNL1        0.0619
     21 C          11.2727   36.2771   10.5042 C.3     1  UNL1        0.0177
     22 C          13.7901   36.6142   10.8497 C.3     1  UNL1        0.0423
     23 C          14.8897   36.2672    9.8956 C.ar    1  UNL1       -0.0207
     24 C          14.6845   35.2626    8.9429 C.ar    1  UNL1       -0.0019
     25 C          15.7096   34.9160    8.0572 C.ar    1  UNL1        0.0293
     26 C          16.9442   35.5679    8.1263 C.ar    1  UNL1        0.1401
     27 C          17.1562   36.5626    9.0844 C.ar    1  UNL1        0.0293
     28 C          16.1316   36.9087    9.9710 C.ar    1  UNL1       -0.0019
     29 F          17.9342   35.2397    7.2629 F       1  UNL1       -0.2042
@<TRIPOS>BOND
     1    17    18    1
     2    18    19    1
     3    18    16    1
     4    16    12    1
     5    12    14   am
     6     8     9   ar
     7     1    11    1
     8     1     2    1
     9     2     3    1
    10     3     6    1
    11     4     6    1
    12     4     5    1
    13     5     1    1
    14    20     6    1
    15    20    21    1
    16    20    22    1
    17    22    23    1
    18    24    25   ar
    19    26    29    1
    20    26    27   ar
    21    28    23   ar
    22    14     7    1
    23    11    10   ar
    24    11     7   ar
    25    12    13    2
    26     7     8   ar
    27     9    10   ar
    28    23    24   ar
    29    25    26   ar
    30    27    28   ar
    31    14    15    1
@<TRIPOS>MOLECULE
MolPort-005-073-513 CSSS00159770980 MCULE-7872540700 PubChem-45207133
 29 31 0 0 0
SMALL
GASTEIGER

@<TRIPOS>ATOM
      1 C           9.4526   40.9207    9.7361 C.3     1  UNL1        0.1093
      2 C           9.7002   40.3943    8.3181 C.3     1  UNL1        0.0418
      3 C          11.1135   40.7321    7.8488 C.3     1  UNL1        0.0741
      4 C          11.9469   40.8821   10.0773 C.3     1  UNL1        0.0741
      5 C          10.5892   40.5424   10.6896 C.3     1  UNL1        0.0418
      6 N          12.1035   40.1977    8.7936 N.3     1  UNL1       -0.2735
      7 C           8.0540   42.9667    9.4384 C.ar    1  UNL1        0.1325
      8 C           8.1869   44.3354    9.5790 C.ar    1  UNL1        0.0565
      9 C           9.5053   44.4885    9.9938 C.ar    1  UNL1        0.1230
     10 N          10.0978   43.2788   10.0860 N.ar    1  UNL1       -0.1666
     11 N           9.2106   42.3623    9.7439 N.ar    1  UNL1       -0.2394
     12 C           5.8865   41.7026    9.8804 C.2     1  UNL1        0.2271
     13 O           6.0291   41.7209   11.1311 O.2     1  UNL1       -0.2747
     14 N           6.8807   42.2619    9.0137 N.am    1  UNL1       -0.2695
     15 H           6.7466   42.1527    8.0445 H       1  UNL1        0.1562
     16 C           4.6775   41.0607    9.2919 C.3     1  UNL1        0.0854
     17 C           2.8455   41.9537   10.6942 C.3     1  UNL1        0.0005
     18 C           3.4945   42.0119    9.3294 C.3     1  UNL1        0.0091
     19 C           3.9590   43.4290    9.0575 C.3     1  UNL1        0.0005
     20 C          13.4785   40.4308    8.3245 C.3     1  UNL1        0.0619
     21 C          14.5398   40.4671    9.4280 C.3     1  UNL1        0.0177
     22 C          13.5757   41.6045    7.3430 C.3     1  UNL1        0.0423
     23 C          14.8791   42.3382    7.3964 C.ar    1  UNL1       -0.0207
     24 C          15.9223   41.8345    8.1819 C.ar    1  UNL1       -0.0019
     25 C          17.1391   42.5196    8.2548 C.ar    1  UNL1        0.0293
     26 C          17.3137   43.7129    7.5483 C.ar    1  UNL1        0.1401
     27 C          16.2700   44.2248    6.7730 C.ar    1  UNL1        0.0293
     28 C          15.0525   43.5405    6.7007 C.ar    1  UNL1       -0.0019
     29 F          18.4948   44.3720    7.6107 F       1  UNL1       -0.2042
@<TRIPOS>BOND
     1    17    18    1
     2    18    19    1
     3    18    16    1
     4    16    12    1
     5    12    14   am
     6     8     9   ar
     7     1    11    1
     8     1     2    1
     9     2     3    1
    10     3     6    1
    11     4     6    1
    12     4     5    1
    13     5     1    1
    14    20     6    1
    15    20    21    1
    16    20    22    1
    17    22    23    1
    18    24    25   ar
    19    26    29    1
    20    26    27   ar
    21    28    23   ar
    22    14     7    1
    23    11    10   ar
    24    11     7   ar
    25    12    13    2
    26     7     8   ar
    27     9    10   ar
    28    23    24   ar
    29    25    26   ar
    30    27    28   ar
    31    14    15    1
@<TRIPOS>MOLECULE
MolPort-005-073-513 CSSS00159770980 MCULE-7872540700 PubChem-45207133
 29 31 0 0 0
SMALL
GASTEIGER

@<TRIPOS>ATOM
      1 C           9.9500   40.5649    8.4971 C.3     1  UNL1        0.1093
      2 C          10.2340   41.8251    7.6723 C.3     1  UNL1        0.0418
      3 C          11.7193   42.1776    7.7067 C.3     1  UNL1        0.0741
      4 C          12.3648   39.9304    8.1723 C.3     1  UNL1        0.0741
      5 C          10.9211   39.4314    8.1563 C.3     1  UNL1        0.0418
      6 N          12.5218   41.0416    7.2335 N.3     1  UNL1       -0.2735
      7 C           8.8650   41.1286   10.6734 C.ar    1  UNL1        0.1325
      8 C           9.2353   41.3133   11.9922 C.ar    1  UNL1        0.0565
      9 C          10.6113   41.1143   11.9698 C.ar    1  UNL1        0.1230
     10 N          11.0108   40.8322   10.7113 N.ar    1  UNL1       -0.1666
     11 N           9.9450   40.8465    9.9316 N.ar    1  UNL1       -0.2394
     12 C           6.3723   41.6178   10.8698 C.2     1  UNL1        0.2271
     13 O           6.4205   41.8157   12.1122 O.2     1  UNL1       -0.2747
     14 N           7.5408   41.2332   10.1355 N.am    1  UNL1       -0.2695
     15 H           7.4242   41.0230    9.1808 H       1  UNL1        0.1562
     16 C           5.0710   41.7563   10.1576 C.3     1  UNL1        0.0854
     17 C           2.6658   42.1338   10.5967 C.3     1  UNL1        0.0005
     18 C           3.9146   41.4368   11.0884 C.3     1  UNL1        0.0091
     19 C           3.6719   39.9409   11.1201 C.3     1  UNL1        0.0005
     20 C          13.9526   41.3795    7.1718 C.3     1  UNL1        0.0619
     21 C          14.7514   41.0392    8.4334 C.3     1  UNL1        0.0177
     22 C          14.2009   42.8014    6.6552 C.3     1  UNL1        0.0423
     23 C          15.5829   43.3128    6.9164 C.ar    1  UNL1       -0.0207
     24 C          16.3512   43.7985    5.8519 C.ar    1  UNL1       -0.0019
     25 C          17.6505   44.2626    6.0793 C.ar    1  UNL1        0.0293
     26 C          18.1873   44.2360    7.3695 C.ar    1  UNL1        0.1401
     27 C          17.4274   43.7403    8.4322 C.ar    1  UNL1        0.0293
     28 C          16.1283   43.2751    8.2051 C.ar    1  UNL1       -0.0019
     29 F          19.4418   44.6940    7.5923 F       1  UNL1       -0.2042
@<TRIPOS>BOND
     1    17    18    1
     2    18    19    1
     3    18    16    1
     4    16    12    1
     5    12    14   am
     6     8     9   ar
     7     1    11    1
     8     1     2    1
     9     2     3    1
    10     3     6    1
    11     4     6    1
    12     4     5    1
    13     5     1    1
    14    20     6    1
    15    20    21    1
    16    20    22    1
    17    22    23    1
    18    24    25   ar
    19    26    29    1
    20    26    27   ar
    21    28    23   ar
    22    14     7    1
    23    11    10   ar
    24    11     7   ar
    25    12    13    2
    26     7     8   ar
    27     9    10   ar
    28    23    24   ar
    29    25    26   ar
    30    27    28   ar
    31    14    15    1
@<TRIPOS>MOLECULE
MolPort-005-073-513 CSSS00159770980 MCULE-7872540700 PubChem-45207133
 29 31 0 0 0
SMALL
GASTEIGER

@<TRIPOS>ATOM
      1 C           9.3074   42.2216    9.6922 C.3     1  UNL1        0.1093
      2 C           9.5846   40.7184    9.5814 C.3     1  UNL1        0.0418
      3 C          10.6816   40.4390    8.5566 C.3     1  UNL1        0.0741
      4 C          11.6291   42.6130    8.7999 C.3     1  UNL1        0.0741
      5 C          10.5994   43.0280    9.8492 C.3     1  UNL1        0.0418
      6 N          11.9019   41.1793    8.9045 N.3     1  UNL1       -0.2735
      7 C           8.3378   42.0824    7.3963 C.ar    1  UNL1        0.1325
      8 C           7.5028   42.8258    6.5834 C.ar    1  UNL1        0.0565
      9 C           7.1949   43.9327    7.3666 C.ar    1  UNL1        0.1230
     10 N           7.8169   43.8334    8.5609 N.ar    1  UNL1       -0.1666
     11 N           8.5103   42.7096    8.5681 N.ar    1  UNL1       -0.2394
     12 C           8.5812   39.9741    5.9866 C.2     1  UNL1        0.2271
     13 O           7.5737   40.2284    5.2758 O.2     1  UNL1       -0.2747
     14 N           8.9613   40.8348    7.0669 N.am    1  UNL1       -0.2695
     15 H           9.7145   40.5447    7.6307 H       1  UNL1        0.1562
     16 C           9.3725   38.7405    5.7183 C.3     1  UNL1        0.0854
     17 C           9.4894   38.6843    3.2477 C.3     1  UNL1        0.0005
     18 C          10.2768   38.9360    4.5142 C.3     1  UNL1        0.0091
     19 C          10.8153   40.3528    4.4940 C.3     1  UNL1        0.0005
     20 C          13.0062   40.8633    7.9848 C.3     1  UNL1        0.0619
     21 C          14.2857   40.3613    8.6603 C.3     1  UNL1        0.0177
     22 C          13.2523   41.9729    6.9558 C.3     1  UNL1        0.0423
     23 C          14.5879   42.6363    7.0815 C.ar    1  UNL1       -0.0207
     24 C          15.5880   42.0324    7.8524 C.ar    1  UNL1       -0.0019
     25 C          16.8344   42.6505    7.9928 C.ar    1  UNL1        0.0293
     26 C          17.0818   43.8765    7.3689 C.ar    1  UNL1        0.1401
     27 C          16.0813   44.4879    6.6088 C.ar    1  UNL1        0.0293
     28 C          14.8343   43.8707    6.4690 C.ar    1  UNL1       -0.0019
     29 F          18.2915   44.4711    7.4964 F       1  UNL1       -0.2042
@<TRIPOS>BOND
     1    17    18    1
     2    18    19    1
     3    18    16    1
     4    16    12    1
     5    12    14   am
     6     8     9   ar
     7     1    11    1
     8     1     2    1
     9     2     3    1
    10     3     6    1
    11     4     6    1
    12     4     5    1
    13     5     1    1
    14    20     6    1
    15    20    21    1
    16    20    22    1
    17    22    23    1
    18    24    25   ar
    19    26    29    1
    20    26    27   ar
    21    28    23   ar
    22    14     7    1
    23    11    10   ar
    24    11     7   ar
    25    12    13    2
    26     7     8   ar
    27     9    10   ar
    28    23    24   ar
    29    25    26   ar
    30    27    28   ar
    31    14    15    1
@<TRIPOS>MOLECULE
MolPort-005-073-513 CSSS00159770980 MCULE-7872540700 PubChem-45207133
 29 31 0 0 0
SMALL
GASTEIGER

@<TRIPOS>ATOM
      1 C           8.6692   40.7890    8.0996 C.3     1  UNL1        0.1093
      2 C           9.5343   39.9633    7.1411 C.3     1  UNL1        0.0418
      3 C          10.7492   40.7624    6.6753 C.3     1  UNL1        0.0741
      4 C          10.7179   42.1629    8.6042 C.3     1  UNL1        0.0741
      5 C           9.5076   41.4459    9.1995 C.3     1  UNL1        0.0418
      6 N          11.5293   41.2211    7.8326 N.3     1  UNL1       -0.2735
      7 C           6.9245   42.5660    7.9286 C.ar    1  UNL1        0.1325
      8 C           6.3857   43.3914    6.9595 C.ar    1  UNL1        0.0565
      9 C           7.0794   43.0312    5.8096 C.ar    1  UNL1        0.1230
     10 N           7.9659   42.0547    6.0989 N.ar    1  UNL1       -0.1666
     11 N           7.8620   41.7770    7.3858 N.ar    1  UNL1       -0.2394
     12 C           5.6602   41.5609    9.8990 C.2     1  UNL1        0.2271
     13 O           5.0521   40.7167    9.1902 O.2     1  UNL1       -0.2747
     14 N           6.5517   42.5161    9.3115 N.am    1  UNL1       -0.2695
     15 H           6.9411   43.1956    9.9080 H       1  UNL1        0.1562
     16 C           5.4243   41.5858   11.3700 C.3     1  UNL1        0.0854
     17 C           3.1103   42.2105   10.7572 C.3     1  UNL1        0.0005
     18 C           3.9550   41.3610   11.6803 C.3     1  UNL1        0.0091
     19 C           3.5996   39.9011   11.4800 C.3     1  UNL1        0.0005
     20 C          12.7549   41.9203    7.4151 C.3     1  UNL1        0.0619
     21 C          12.8017   42.3138    5.9357 C.3     1  UNL1        0.0177
     22 C          14.0285   41.2199    7.9027 C.3     1  UNL1        0.0423
     23 C          15.2544   42.0767    7.8499 C.ar    1  UNL1       -0.0207
     24 C          16.3919   41.6984    8.5723 C.ar    1  UNL1       -0.0019
     25 C          17.5379   42.4992    8.5461 C.ar    1  UNL1        0.0293
     26 C          17.5473   43.6832    7.8032 C.ar    1  UNL1        0.1401
     27 C          16.4092   44.0699    7.0908 C.ar    1  UNL1        0.0293
     28 C          15.2625   43.2699    7.1178 C.ar    1  UNL1       -0.0019
     29 F          18.6597   44.4543    7.7694 F       1  UNL1       -0.2042
@<TRIPOS>BOND
     1    17    18    1
     2    18    19    1
     3    18    16    1
     4    16    12    1
     5    12    14   am
     6     8     9   ar
     7     1    11    1
     8     1     2    1
     9     2     3    1
    10     3     6    1
    11     4     6    1
    12     4     5    1
    13     5     1    1
    14    20     6    1
    15    20    21    1
    16    20    22    1
    17    22    23    1
    18    24    25   ar
    19    26    29    1
    20    26    27   ar
    21    28    23   ar
    22    14     7    1
    23    11    10   ar
    24    11     7   ar
    25    12    13    2
    26     7     8   ar
    27     9    10   ar
    28    23    24   ar
    29    25    26   ar
    30    27    28   ar
    31    14    15    1
@<TRIPOS>MOLECULE
MolPort-005-073-513 CSSS00159770980 MCULE-7872540700 PubChem-45207133
 29 31 0 0 0
SMALL
GASTEIGER

@<TRIPOS>ATOM
      1 C           8.0199   41.4845    9.1654 C.3     1  UNL1        0.1093
      2 C           8.0074   40.5310    7.9656 C.3     1  UNL1        0.0418
      3 C           9.1093   40.8895    6.9710 C.3     1  UNL1        0.0741
      4 C          10.4385   41.9495    8.6422 C.3     1  UNL1        0.0741
      5 C           9.4268   41.6487    9.7465 C.3     1  UNL1        0.0418
      6 N          10.4176   40.8844    7.6393 N.3     1  UNL1       -0.2735
      7 C           6.1220   43.0789    8.8708 C.ar    1  UNL1        0.1325
      8 C           5.9328   44.4022    8.5191 C.ar    1  UNL1        0.0565
      9 C           7.2243   44.8577    8.2778 C.ar    1  UNL1        0.1230
     10 N           8.1062   43.8551    8.4781 N.ar    1  UNL1       -0.1666
     11 N           7.4278   42.7794    8.8341 N.ar    1  UNL1       -0.2394
     12 C           3.6913   42.3796    9.1778 C.2     1  UNL1        0.2271
     13 O           3.2381   43.5249    8.9173 O.2     1  UNL1       -0.2747
     14 N           5.1020   42.1315    9.2110 N.am    1  UNL1       -0.2695
     15 H           5.3953   41.2345    9.4912 H       1  UNL1        0.1562
     16 C           2.7443   41.2716    9.4868 C.3     1  UNL1        0.0854
     17 C           4.0727   40.2137   11.2858 C.3     1  UNL1        0.0005
     18 C           2.7812   40.9329   10.9665 C.3     1  UNL1        0.0091
     19 C           2.6992   42.2018   11.7916 C.3     1  UNL1        0.0005
     20 C          11.5109   41.1406    6.6883 C.3     1  UNL1        0.0619
     21 C          11.3633   40.4447    5.3320 C.3     1  UNL1        0.0177
     22 C          12.8961   40.9618    7.3203 C.3     1  UNL1        0.0423
     23 C          13.8542   42.0700    7.0139 C.ar    1  UNL1       -0.0207
     24 C          15.1148   42.0796    7.6220 C.ar    1  UNL1       -0.0019
     25 C          16.0128   43.1186    7.3583 C.ar    1  UNL1        0.0293
     26 C          15.6503   44.1537    6.4918 C.ar    1  UNL1        0.1401
     27 C          14.3879   44.1534    5.8927 C.ar    1  UNL1        0.0293
     28 C          13.4891   43.1151    6.1571 C.ar    1  UNL1       -0.0019
     29 F          16.5226   45.1551    6.2284 F       1  UNL1       -0.2042
@<TRIPOS>BOND
     1    17    18    1
     2    18    19    1
     3    18    16    1
     4    16    12    1
     5    12    14   am
     6     8     9   ar
     7     1    11    1
     8     1     2    1
     9     2     3    1
    10     3     6    1
    11     4     6    1
    12     4     5    1
    13     5     1    1
    14    20     6    1
    15    20    21    1
    16    20    22    1
    17    22    23    1
    18    24    25   ar
    19    26    29    1
    20    26    27   ar
    21    28    23   ar
    22    14     7    1
    23    11    10   ar
    24    11     7   ar
    25    12    13    2
    26     7     8   ar
    27     9    10   ar
    28    23    24   ar
    29    25    26   ar
    30    27    28   ar
    31    14    15    1
@<TRIPOS>MOLECULE
MolPort-005-073-513 CSSS00159770980 MCULE-7872540700 PubChem-45207133
 29 31 0 0 0
SMALL
GASTEIGER

@<TRIPOS>ATOM
      1 C           9.3367   39.1682    6.6045 C.3     1  UNL1        0.1093
      2 C          10.4052   39.4030    5.5312 C.3     1  UNL1        0.0418
      3 C          11.4946   40.3436    6.0410 C.3     1  UNL1        0.0741
      4 C          11.0680   39.7958    8.3216 C.3     1  UNL1        0.0741
      5 C           9.9585   38.8110    7.9573 C.3     1  UNL1        0.0418
      6 N          12.0894   39.8106    7.2741 N.3     1  UNL1       -0.2735
      7 C           8.1708   40.9949    7.8434 C.ar    1  UNL1        0.1325
      8 C           7.2832   42.0196    7.5736 C.ar    1  UNL1        0.0565
      9 C           7.0424   41.8848    6.2108 C.ar    1  UNL1        0.1230
     10 N           7.7493   40.8426    5.7237 N.ar    1  UNL1       -0.1666
     11 N           8.4279   40.3071    6.7221 N.ar    1  UNL1       -0.2394
     12 C           9.2992   41.6103   10.0432 C.2     1  UNL1        0.2271
     13 O           9.4117   42.8282    9.7451 O.2     1  UNL1       -0.2747
     14 N           8.7386   40.6705    9.1186 N.am    1  UNL1       -0.2695
     15 H           8.7439   39.7217    9.3814 H       1  UNL1        0.1562
     16 C           9.7861   41.1341   11.3684 C.3     1  UNL1        0.0854
     17 C           9.0775   41.2013   13.7377 C.3     1  UNL1        0.0005
     18 C           8.6233   40.9242   12.3220 C.3     1  UNL1        0.0091
     19 C           7.4868   41.8631   11.9695 C.3     1  UNL1        0.0005
     20 C          13.2029   40.6502    7.7435 C.3     1  UNL1        0.0619
     21 C          13.2366   40.8917    9.2555 C.3     1  UNL1        0.0177
     22 C          13.3660   41.9302    6.9156 C.3     1  UNL1        0.0423
     23 C          14.6963   42.5964    7.0778 C.ar    1  UNL1       -0.0207
     24 C          14.9539   43.7953    6.4031 C.ar    1  UNL1       -0.0019
     25 C          16.1989   44.4189    6.5317 C.ar    1  UNL1        0.0293
     26 C          17.1913   43.8421    7.3293 C.ar    1  UNL1        0.1401
     27 C          16.9415   42.6388    7.9942 C.ar    1  UNL1        0.0293
     28 C          15.6969   42.0143    7.8650 C.ar    1  UNL1       -0.0019
     29 F          18.3938   44.4500    7.4620 F       1  UNL1       -0.2042
@<TRIPOS>BOND
     1    17    18    1
     2    18    19    1
     3    18    16    1
     4    16    12    1
     5    12    14   am
     6     8     9   ar
     7     1    11    1
     8     1     2    1
     9     2     3    1
    10     3     6    1
    11     4     6    1
    12     4     5    1
    13     5     1    1
    14    20     6    1
    15    20    21    1
    16    20    22    1
    17    22    23    1
    18    24    25   ar
    19    26    29    1
    20    26    27   ar
    21    28    23   ar
    22    14     7    1
    23    11    10   ar
    24    11     7   ar
    25    12    13    2
    26     7     8   ar
    27     9    10   ar
    28    23    24   ar
    29    25    26   ar
    30    27    28   ar
    31    14    15    1
@<TRIPOS>MOLECULE
MolPort-005-073-513 CSSS00159770980 MCULE-7872540700 PubChem-45207133
 29 31 0 0 0
SMALL
GASTEIGER

@<TRIPOS>ATOM
      1 C           8.2956   39.2183    6.7565 C.3     1  UNL1        0.1093
      2 C           8.7773   40.0524    7.9486 C.3     1  UNL1        0.0418
      3 C           8.3840   41.5187    7.7843 C.3     1  UNL1        0.0741
      4 C           6.5556   40.9917    6.3480 C.3     1  UNL1        0.0741
      5 C           6.8248   39.4903    6.4295 C.3     1  UNL1        0.0418
      6 N           6.9305   41.6375    7.6063 N.3     1  UNL1       -0.2735
      7 C          10.4429   39.7448    5.5976 C.ar    1  UNL1        0.1325
      8 C          10.9259   39.8139    4.3043 C.ar    1  UNL1        0.0565
      9 C           9.8168   39.4917    3.5301 C.ar    1  UNL1        0.1230
     10 N           8.7562   39.2515    4.3304 N.ar    1  UNL1       -0.1666
     11 N           9.1449   39.4109    5.5824 N.ar    1  UNL1       -0.2394
     12 C          12.0370   41.1283    7.0245 C.2     1  UNL1        0.2271
     13 O          12.2762   41.9574    6.1079 O.2     1  UNL1       -0.2747
     14 N          11.1797   40.0028    6.7994 N.am    1  UNL1       -0.2695
     15 H          11.0891   39.3515    7.5321 H       1  UNL1        0.1562
     16 C          12.6814   41.3047    8.3562 C.3     1  UNL1        0.0854
     17 C          14.6719   40.0129    9.0557 C.3     1  UNL1        0.0005
     18 C          13.1686   39.9717    8.8959 C.3     1  UNL1        0.0091
     19 C          12.5309   39.6925   10.2424 C.3     1  UNL1        0.0005
     20 C           6.5086   43.0452    7.5324 C.3     1  UNL1        0.0619
     21 C           7.5918   44.0640    7.8991 C.3     1  UNL1        0.0177
     22 C           5.1690   43.2969    8.2342 C.3     1  UNL1        0.0423
     23 C           4.8301   42.2846    9.2831 C.ar    1  UNL1       -0.0207
     24 C           3.6253   41.5776    9.1955 C.ar    1  UNL1       -0.0019
     25 C           3.2880   40.6420   10.1784 C.ar    1  UNL1        0.0293
     26 C           4.1509   40.4157   11.2545 C.ar    1  UNL1        0.1401
     27 C           5.3486   41.1288   11.3514 C.ar    1  UNL1        0.0293
     28 C           5.6857   42.0654   10.3692 C.ar    1  UNL1       -0.0019
     29 F           3.8297   39.5030   12.2016 F       1  UNL1       -0.2042
@<TRIPOS>BOND
     1    17    18    1
     2    18    19    1
     3    18    16    1
     4    16    12    1
     5    12    14   am
     6     8     9   ar
     7     1    11    1
     8     1     2    1
     9     2     3    1
    10     3     6    1
    11     4     6    1
    12     4     5    1
    13     5     1    1
    14    20     6    1
    15    20    21    1
    16    20    22    1
    17    22    23    1
    18    24    25   ar
    19    26    29    1
    20    26    27   ar
    21    28    23   ar
    22    14     7    1
    23    11    10   ar
    24    11     7   ar
    25    12    13    2
    26     7     8   ar
    27     9    10   ar
    28    23    24   ar
    29    25    26   ar
    30    27    28   ar
    31    14    15    1
@<TRIPOS>MOLECULE
MolPort-005-073-513 CSSS00159770980 MCULE-7872540700 PubChem-45207133
 29 31 0 0 0
SMALL
GASTEIGER

@<TRIPOS>ATOM
      1 C           9.3912   40.7786    8.1304 C.3     1  UNL1        0.1093
      2 C           9.7221   42.0352    7.3179 C.3     1  UNL1        0.0418
      3 C          11.2195   42.3320    7.3557 C.3     1  UNL1        0.0741
      4 C          11.7809   40.0579    7.7993 C.3     1  UNL1        0.0741
      5 C          10.3196   39.6131    7.7784 C.3     1  UNL1        0.0418
      6 N          11.9794   41.1717    6.8714 N.3     1  UNL1       -0.2735
      7 C          10.1343   40.4041   10.4838 C.ar    1  UNL1        0.1325
      8 C           9.8999   40.9401   11.7361 C.ar    1  UNL1        0.0565
      9 C           8.9736   41.9465   11.4860 C.ar    1  UNL1        0.1230
     10 N           8.6900   41.9876   10.1666 N.ar    1  UNL1       -0.1666
     11 N           9.3963   41.0461    9.5675 N.ar    1  UNL1       -0.2394
     12 C          12.3304   39.1304   10.6981 C.2     1  UNL1        0.2271
     13 O          12.8628   39.9996   11.4371 O.2     1  UNL1       -0.2747
     14 N          11.0107   39.3140   10.1718 N.am    1  UNL1       -0.2695
     15 H          10.6777   38.6339    9.5427 H       1  UNL1        0.1562
     16 C          13.0988   37.9050   10.3406 C.3     1  UNL1        0.0854
     17 C          10.9672   36.6741   10.0925 C.3     1  UNL1        0.0005
     18 C          12.3329   36.6568   10.7420 C.3     1  UNL1        0.0091
     19 C          13.0841   35.4196   10.2921 C.3     1  UNL1        0.0005
     20 C          13.4218   41.4567    6.8129 C.3     1  UNL1        0.0619
     21 C          14.2245   40.9765    8.0256 C.3     1  UNL1        0.0177
     22 C          13.7205   42.9072    6.4166 C.3     1  UNL1        0.0423
     23 C          15.1370   43.3261    6.6574 C.ar    1  UNL1       -0.0207
     24 C          15.6745   43.2315    7.9463 C.ar    1  UNL1       -0.0019
     25 C          16.9908   43.6363    8.1887 C.ar    1  UNL1        0.0293
     26 C          17.7705   44.1429    7.1451 C.ar    1  UNL1        0.1401
     27 C          17.2329   44.2501    5.8599 C.ar    1  UNL1        0.0293
     28 C          15.9161   43.8464    5.6172 C.ar    1  UNL1       -0.0019
     29 F          19.0482   44.5262    7.3768 F       1  UNL1       -0.2042
@<TRIPOS>BOND
     1    17    18    1
     2    18    19    1
     3    18    16    1
     4    16    12    1
     5    12    14   am
     6     8     9   ar
     7     1    11    1
     8     1     2    1
     9     2     3    1
    10     3     6    1
    11     4     6    1
    12     4     5    1
    13     5     1    1
    14    20     6    1
    15    20    21    1
    16    20    22    1
    17    22    23    1
    18    24    25   ar
    19    26    29    1
    20    26    27   ar
    21    28    23   ar
    22    14     7    1
    23    11    10   ar
    24    11     7   ar
    25    12    13    2
    26     7     8   ar
    27     9    10   ar
    28    23    24   ar
    29    25    26   ar
    30    27    28   ar
    31    14    15    1
