@<TRIPOS>MOLECULE
Molport-020-275-222 MCULE-6160990549 PubChem-110252899
 29 32 0 0 0
SMALL
GASTEIGER

@<TRIPOS>ATOM
      1 C          12.7887   41.2231    7.4438 C.ar    1  UNL1        0.1522
      2 C          10.4460   41.1113    7.0702 C.ar    1  UNL1        0.0808
      3 C          10.6255   41.6456    5.7882 C.ar    1  UNL1        0.1137
      4 C          12.9600   41.7568    6.1600 C.ar    1  UNL1        0.1332
      5 N          11.5325   40.9147    7.8633 N.ar    1  UNL1       -0.2317
      6 N          11.8777   41.9556    5.3631 N.ar    1  UNL1       -0.2382
      7 C           9.0873   40.7555    7.5832 C.3     1  UNL1        0.0618
      8 C           8.2109   40.1782    6.4696 C.3     1  UNL1        0.0094
      9 C           6.8363   39.8024    7.0177 C.3     1  UNL1        0.0220
     10 C           6.1709   41.0228    7.6476 C.3     1  UNL1        0.0937
     11 C           8.4105   41.9660    8.2271 C.3     1  UNL1        0.0996
     12 C           6.7059   41.6629   10.0455 C.2     1  UNL1        0.2490
     13 N           7.0606   41.6039    8.6513 N.am    1  UNL1       -0.2757
     14 O           7.6250   41.6949   10.9097 O.2     1  UNL1       -0.2699
     15 C           5.2972   41.6969   10.5050 C.ar    1  UNL1        0.0536
     16 C           4.3999   42.6106    9.9301 C.ar    1  UNL1        0.0045
     17 C           3.0610   42.6404   10.3309 C.ar    1  UNL1        0.0001
     18 C           2.6041   41.7507   11.3060 C.ar    1  UNL1        0.0000
     19 C           3.4849   40.8295   11.8775 C.ar    1  UNL1        0.0001
     20 C           4.8236   40.8008   11.4756 C.ar    1  UNL1        0.0045
     21 N          13.8943   40.9920    8.3283 N.pl3   1  UNL1       -0.2821
     22 H          13.7386   40.3575    9.0647 H       1  UNL1        0.1551
     23 C          16.9507   44.3208    6.4280 C.3     1  UNL1        0.0521
     24 C          16.7045   43.1863    7.3553 C.ar    1  UNL1        0.0608
     25 C          15.2003   41.5802    8.2618 C.ar    1  UNL1        0.1328
     26 C          16.2153   41.0694    9.0754 C.ar    1  UNL1        0.0344
     27 C          17.4906   41.6342    9.0191 C.ar    1  UNL1        0.0041
     28 C          17.7412   42.7004    8.1543 C.ar    1  UNL1        0.0148
     29 N          15.4687   42.6219    7.4252 N.ar    1  UNL1       -0.2349
@<TRIPOS>BOND
     1    23    24    1
     2    25    29   ar
     3    25    21    1
     4    26    27   ar
     5    28    24   ar
     6     2     5   ar
     7     3     6   ar
     8     4     1   ar
     9     7     2    1
    10     7     8    1
    11     8     9    1
    12     9    10    1
    13    10    13    1
    14    11    13    1
    15    11     7    1
    16    12    15    1
    17    16    17   ar
    18    18    19   ar
    19    20    15   ar
    20    21     1    1
    21    13    12   am
    22    24    29   ar
    23    25    26   ar
    24    27    28   ar
    25     1     5   ar
    26     2     3   ar
    27     4     6   ar
    28    12    14    2
    29    15    16   ar
    30    17    18   ar
    31    19    20   ar
    32    21    22    1
@<TRIPOS>MOLECULE
Molport-020-275-222 MCULE-6160990549 PubChem-110252899
 29 32 0 0 0
SMALL
GASTEIGER

@<TRIPOS>ATOM
      1 C          12.5181   41.3640    7.7243 C.ar    1  UNL1        0.1522
      2 C          12.0582   39.1869    8.5543 C.ar    1  UNL1        0.0808
      3 C          10.7815   39.6072    8.9476 C.ar    1  UNL1        0.1137
      4 C          11.2394   41.7766    8.1203 C.ar    1  UNL1        0.1332
      5 N          12.8919   40.0768    7.9535 N.ar    1  UNL1       -0.2317
      6 N          10.4020   40.8916    8.7215 N.ar    1  UNL1       -0.2382
      7 C          12.5218   37.7839    8.7830 C.3     1  UNL1        0.0618
      8 C          11.9735   37.2294   10.0996 C.3     1  UNL1        0.0094
      9 C          12.4408   35.7903   10.3043 C.3     1  UNL1        0.0220
     10 C          13.9654   35.7261   10.2871 C.3     1  UNL1        0.0937
     11 C          14.0484   37.7004    8.7587 C.3     1  UNL1        0.0996
     12 C          15.2038   35.5785    8.0758 C.2     1  UNL1        0.2490
     13 N          14.4687   36.3337    9.0567 N.am    1  UNL1       -0.2757
     14 O          15.1879   35.9593    6.8727 O.2     1  UNL1       -0.2699
     15 C          15.9889   34.3718    8.4286 C.ar    1  UNL1        0.0536
     16 C          15.3840   33.1065    8.3689 C.ar    1  UNL1        0.0045
     17 C          16.1148   31.9540    8.6721 C.ar    1  UNL1        0.0001
     18 C          17.4610   32.0550    9.0309 C.ar    1  UNL1        0.0000
     19 C          18.0769   33.3077    9.0830 C.ar    1  UNL1        0.0001
     20 C          17.3448   34.4593    8.7795 C.ar    1  UNL1        0.0045
     21 N          13.4441   42.2547    7.0859 N.pl3   1  UNL1       -0.2821
     22 H          13.0739   42.8417    6.3877 H       1  UNL1        0.1551
     23 C          17.7873   44.2566    6.0079 C.3     1  UNL1        0.0521
     24 C          16.9674   43.3445    6.8466 C.ar    1  UNL1        0.0608
     25 C          14.8473   42.3870    7.3492 C.ar    1  UNL1        0.1328
     26 C          15.4127   41.6511    8.3941 C.ar    1  UNL1        0.0344
     27 C          16.7778   41.7721    8.6596 C.ar    1  UNL1        0.0041
     28 C          17.5643   42.6238    7.8827 C.ar    1  UNL1        0.0148
     29 N          15.6354   43.2124    6.6042 N.ar    1  UNL1       -0.2349
@<TRIPOS>BOND
     1    23    24    1
     2    25    29   ar
     3    25    21    1
     4    26    27   ar
     5    28    24   ar
     6     2     5   ar
     7     3     6   ar
     8     4     1   ar
     9     7     2    1
    10     7     8    1
    11     8     9    1
    12     9    10    1
    13    10    13    1
    14    11    13    1
    15    11     7    1
    16    12    15    1
    17    16    17   ar
    18    18    19   ar
    19    20    15   ar
    20    21     1    1
    21    13    12   am
    22    24    29   ar
    23    25    26   ar
    24    27    28   ar
    25     1     5   ar
    26     2     3   ar
    27     4     6   ar
    28    12    14    2
    29    15    16   ar
    30    17    18   ar
    31    19    20   ar
    32    21    22    1
@<TRIPOS>MOLECULE
Molport-020-275-222 MCULE-6160990549 PubChem-110252899
 29 32 0 0 0
SMALL
GASTEIGER

@<TRIPOS>ATOM
      1 C          16.6714   39.8376   10.2558 C.ar    1  UNL1        0.1522
      2 C          14.5502   38.9189   10.8006 C.ar    1  UNL1        0.0808
      3 C          15.1693   37.9973   11.6543 C.ar    1  UNL1        0.1137
      4 C          17.2830   38.9128   11.1118 C.ar    1  UNL1        0.1332
      5 N          15.3181   39.8139   10.1244 N.ar    1  UNL1       -0.2317
      6 N          16.5205   38.0158   11.7900 N.ar    1  UNL1       -0.2382
      7 C          13.0664   38.9368   10.6172 C.3     1  UNL1        0.0618
      8 C          12.6455   38.0568    9.4382 C.3     1  UNL1        0.0094
      9 C          11.1269   38.0720    9.2807 C.3     1  UNL1        0.0220
     10 C          10.6338   39.5031    9.0866 C.3     1  UNL1        0.0937
     11 C          12.5544   40.3656   10.4314 C.3     1  UNL1        0.0996
     12 C          10.2165   40.9856   11.1050 C.2     1  UNL1        0.2490
     13 N          11.1153   40.3414   10.1829 N.am    1  UNL1       -0.2757
     14 O          10.6270   41.2648   12.2653 O.2     1  UNL1       -0.2699
     15 C           8.8255   41.3428   10.7384 C.ar    1  UNL1        0.0536
     16 C           8.5386   41.7720    9.4330 C.ar    1  UNL1        0.0045
     17 C           7.2289   42.0880    9.0602 C.ar    1  UNL1        0.0001
     18 C           6.1911   41.9705    9.9878 C.ar    1  UNL1        0.0000
     19 C           6.4626   41.5338   11.2865 C.ar    1  UNL1        0.0001
     20 C           7.7728   41.2180   11.6580 C.ar    1  UNL1        0.0045
     21 N          17.4259   40.8069    9.5146 N.pl3   1  UNL1       -0.2821
     22 H          18.4057   40.7466    9.5888 H       1  UNL1        0.1551
     23 C          13.9171   42.5403    6.5620 C.3     1  UNL1        0.0521
     24 C          15.2264   42.7185    7.2415 C.ar    1  UNL1        0.0608
     25 C          16.9152   41.8536    8.6782 C.ar    1  UNL1        0.1328
     26 C          17.6653   43.0223    8.5217 C.ar    1  UNL1        0.0344
     27 C          17.1780   44.0480    7.7098 C.ar    1  UNL1        0.0041
     28 C          15.9502   43.8990    7.0633 C.ar    1  UNL1        0.0148
     29 N          15.7190   41.7309    8.0369 N.ar    1  UNL1       -0.2349
@<TRIPOS>BOND
     1    23    24    1
     2    25    29   ar
     3    25    21    1
     4    26    27   ar
     5    28    24   ar
     6     2     5   ar
     7     3     6   ar
     8     4     1   ar
     9     7     2    1
    10     7     8    1
    11     8     9    1
    12     9    10    1
    13    10    13    1
    14    11    13    1
    15    11     7    1
    16    12    15    1
    17    16    17   ar
    18    18    19   ar
    19    20    15   ar
    20    21     1    1
    21    13    12   am
    22    24    29   ar
    23    25    26   ar
    24    27    28   ar
    25     1     5   ar
    26     2     3   ar
    27     4     6   ar
    28    12    14    2
    29    15    16   ar
    30    17    18   ar
    31    19    20   ar
    32    21    22    1
@<TRIPOS>MOLECULE
Molport-020-275-222 MCULE-6160990549 PubChem-110252899
 29 32 0 0 0
SMALL
GASTEIGER

@<TRIPOS>ATOM
      1 C          15.6755   40.2648    9.6845 C.ar    1  UNL1        0.1522
      2 C          13.3442   39.8157    9.7456 C.ar    1  UNL1        0.0808
      3 C          13.5422   38.9369   10.8179 C.ar    1  UNL1        0.1137
      4 C          15.8652   39.3845   10.7574 C.ar    1  UNL1        0.1332
      5 N          14.4163   40.4557    9.2079 N.ar    1  UNL1       -0.2317
      6 N          14.7974   38.7420   11.2987 N.ar    1  UNL1       -0.2382
      7 C          11.9817   40.0620    9.1809 C.3     1  UNL1        0.0618
      8 C          11.7835   39.3026    7.8673 C.3     1  UNL1        0.0094
      9 C          10.3805   39.5502    7.3182 C.3     1  UNL1        0.0220
     10 C          10.1531   41.0455    7.1147 C.3     1  UNL1        0.0937
     11 C          11.7338   41.5574    8.9802 C.3     1  UNL1        0.0996
     12 C           9.4047   42.4914    9.0628 C.2     1  UNL1        0.2490
     13 N          10.4261   41.7580    8.3614 N.am    1  UNL1       -0.2757
     14 O           9.5184   42.6595   10.3084 O.2     1  UNL1       -0.2699
     15 C           8.2255   43.0663    8.3730 C.ar    1  UNL1        0.0536
     16 C           7.8971   42.6332    7.0787 C.ar    1  UNL1        0.0045
     17 C           6.7738   43.1437    6.4217 C.ar    1  UNL1        0.0001
     18 C           5.9627   44.0876    7.0561 C.ar    1  UNL1        0.0000
     19 C           6.2730   44.5180    8.3482 C.ar    1  UNL1        0.0001
     20 C           7.3966   44.0065    9.0041 C.ar    1  UNL1        0.0045
     21 N          16.7653   40.9700    9.0736 N.pl3   1  UNL1       -0.2821
     22 H          17.6686   40.6307    9.2690 H       1  UNL1        0.1551
     23 C          14.2081   43.7684    5.9651 C.3     1  UNL1        0.0521
     24 C          15.4691   43.4879    6.6990 C.ar    1  UNL1        0.0608
     25 C          16.6886   42.1127    8.2109 C.ar    1  UNL1        0.1328
     26 C          17.8078   42.9394    8.0807 C.ar    1  UNL1        0.0344
     27 C          17.7446   44.0547    7.2436 C.ar    1  UNL1        0.0041
     28 C          16.5688   44.3346    6.5460 C.ar    1  UNL1        0.0148
     29 N          15.5513   42.4061    7.5196 N.ar    1  UNL1       -0.2349
@<TRIPOS>BOND
     1    23    24    1
     2    25    29   ar
     3    25    21    1
     4    26    27   ar
     5    28    24   ar
     6     2     5   ar
     7     3     6   ar
     8     4     1   ar
     9     7     2    1
    10     7     8    1
    11     8     9    1
    12     9    10    1
    13    10    13    1
    14    11    13    1
    15    11     7    1
    16    12    15    1
    17    16    17   ar
    18    18    19   ar
    19    20    15   ar
    20    21     1    1
    21    13    12   am
    22    24    29   ar
    23    25    26   ar
    24    27    28   ar
    25     1     5   ar
    26     2     3   ar
    27     4     6   ar
    28    12    14    2
    29    15    16   ar
    30    17    18   ar
    31    19    20   ar
    32    21    22    1
@<TRIPOS>MOLECULE
Molport-020-275-222 MCULE-6160990549 PubChem-110252899
 29 32 0 0 0
SMALL
GASTEIGER

@<TRIPOS>ATOM
      1 C          14.1268   41.4287    7.9034 C.ar    1  UNL1        0.1522
      2 C          11.7912   41.2963    7.4942 C.ar    1  UNL1        0.0808
      3 C          11.9453   42.1004    6.3579 C.ar    1  UNL1        0.1137
      4 C          14.2728   42.2321    6.7653 C.ar    1  UNL1        0.1332
      5 N          12.8861   40.9825    8.2362 N.ar    1  UNL1       -0.2317
      6 N          13.1819   42.5492    6.0201 N.ar    1  UNL1       -0.2382
      7 C          10.4503   40.7794    7.9073 C.3     1  UNL1        0.0618
      8 C           9.8998   39.7895    6.8784 C.3     1  UNL1        0.0094
      9 C           8.5410   39.2579    7.3282 C.3     1  UNL1        0.0220
     10 C           7.5676   40.4147    7.5359 C.3     1  UNL1        0.0937
     11 C           9.4651   41.9274    8.1294 C.3     1  UNL1        0.0996
     12 C           7.5524   41.6800    9.7370 C.2     1  UNL1        0.2490
     13 N           8.1494   41.3862    8.4602 N.am    1  UNL1       -0.2757
     14 O           8.2858   42.1050   10.6720 O.2     1  UNL1       -0.2699
     15 C           6.1023   41.5103    9.9926 C.ar    1  UNL1        0.0536
     16 C           5.1817   41.7439    8.9589 C.ar    1  UNL1        0.0045
     17 C           3.8121   41.5637    9.1724 C.ar    1  UNL1        0.0001
     18 C           3.3496   41.1403   10.4206 C.ar    1  UNL1        0.0000
     19 C           4.2569   40.8940   11.4537 C.ar    1  UNL1        0.0001
     20 C           5.6264   41.0746   11.2388 C.ar    1  UNL1        0.0045
     21 N          15.2425   41.0624    8.7276 N.pl3   1  UNL1       -0.2821
     22 H          16.0679   41.5841    8.6014 H       1  UNL1        0.1551
     23 C          17.6503   37.3727   10.8776 C.3     1  UNL1        0.0521
     24 C          16.4396   38.2279   10.7748 C.ar    1  UNL1        0.0608
     25 C          15.2923   40.0230    9.7140 C.ar    1  UNL1        0.1328
     26 C          14.1950   39.8387   10.5595 C.ar    1  UNL1        0.0344
     27 C          14.2323   38.8299   11.5237 C.ar    1  UNL1        0.0041
     28 C          15.3608   38.0165   11.6355 C.ar    1  UNL1        0.0148
     29 N          16.3833   39.2164    9.8420 N.ar    1  UNL1       -0.2349
@<TRIPOS>BOND
     1    23    24    1
     2    25    29   ar
     3    25    21    1
     4    26    27   ar
     5    28    24   ar
     6     2     5   ar
     7     3     6   ar
     8     4     1   ar
     9     7     2    1
    10     7     8    1
    11     8     9    1
    12     9    10    1
    13    10    13    1
    14    11    13    1
    15    11     7    1
    16    12    15    1
    17    16    17   ar
    18    18    19   ar
    19    20    15   ar
    20    21     1    1
    21    13    12   am
    22    24    29   ar
    23    25    26   ar
    24    27    28   ar
    25     1     5   ar
    26     2     3   ar
    27     4     6   ar
    28    12    14    2
    29    15    16   ar
    30    17    18   ar
    31    19    20   ar
    32    21    22    1
@<TRIPOS>MOLECULE
Molport-020-275-222 MCULE-6160990549 PubChem-110252899
 29 32 0 0 0
SMALL
GASTEIGER

@<TRIPOS>ATOM
      1 C          16.2806   39.6914   10.3311 C.ar    1  UNL1        0.1522
      2 C          14.1558   38.7205   10.7589 C.ar    1  UNL1        0.0808
      3 C          14.7140   37.9547   11.7901 C.ar    1  UNL1        0.1137
      4 C          16.8313   38.9222   11.3642 C.ar    1  UNL1        0.1332
      5 N          14.9543   39.5679   10.0573 N.ar    1  UNL1       -0.2317
      6 N          16.0380   38.0734   12.0687 N.ar    1  UNL1       -0.2382
      7 C          12.7041   38.6235   10.4141 C.3     1  UNL1        0.0618
      8 C          12.2729   37.1648   10.2474 C.3     1  UNL1        0.0094
      9 C          10.7844   37.0864    9.9164 C.3     1  UNL1        0.0220
     10 C          10.4857   37.8837    8.6499 C.3     1  UNL1        0.0937
     11 C          12.3859   39.4259    9.1520 C.3     1  UNL1        0.0996
     12 C          10.0953   40.3884    8.7903 C.2     1  UNL1        0.2490
     13 N          10.9784   39.2513    8.8029 N.am    1  UNL1       -0.2757
     14 O          10.4446   41.4409    9.3927 O.2     1  UNL1       -0.2699
     15 C           8.7911   40.3723    8.0864 C.ar    1  UNL1        0.0536
     16 C           7.6920   41.0455    8.6427 C.ar    1  UNL1        0.0045
     17 C           6.4607   41.0645    7.9812 C.ar    1  UNL1        0.0001
     18 C           6.3182   40.4164    6.7521 C.ar    1  UNL1        0.0000
     19 C           7.4076   39.7525    6.1832 C.ar    1  UNL1        0.0001
     20 C           8.6384   39.7344    6.8458 C.ar    1  UNL1        0.0045
     21 N          17.0698   40.6033    9.5542 N.pl3   1  UNL1       -0.2821
     22 H          18.0420   40.5783    9.7069 H       1  UNL1        0.1551
     23 C          17.9723   44.3076    6.4724 C.3     1  UNL1        0.0521
     24 C          17.0150   43.3455    7.0770 C.ar    1  UNL1        0.0608
     25 C          16.6036   41.5471    8.5806 C.ar    1  UNL1        0.1328
     26 C          15.2530   41.5388    8.2219 C.ar    1  UNL1        0.0344
     27 C          14.7879   42.4531    7.2750 C.ar    1  UNL1        0.0041
     28 C          15.6719   43.3645    6.6960 C.ar    1  UNL1        0.0148
     29 N          17.4481   42.4465    8.0016 N.ar    1  UNL1       -0.2349
@<TRIPOS>BOND
     1    23    24    1
     2    25    29   ar
     3    25    21    1
     4    26    27   ar
     5    28    24   ar
     6     2     5   ar
     7     3     6   ar
     8     4     1   ar
     9     7     2    1
    10     7     8    1
    11     8     9    1
    12     9    10    1
    13    10    13    1
    14    11    13    1
    15    11     7    1
    16    12    15    1
    17    16    17   ar
    18    18    19   ar
    19    20    15   ar
    20    21     1    1
    21    13    12   am
    22    24    29   ar
    23    25    26   ar
    24    27    28   ar
    25     1     5   ar
    26     2     3   ar
    27     4     6   ar
    28    12    14    2
    29    15    16   ar
    30    17    18   ar
    31    19    20   ar
    32    21    22    1
@<TRIPOS>MOLECULE
Molport-020-275-222 MCULE-6160990549 PubChem-110252899
 29 32 0 0 0
SMALL
GASTEIGER

@<TRIPOS>ATOM
      1 C          14.2696   39.8767    9.1243 C.ar    1  UNL1        0.1522
      2 C          11.9330   40.1755    9.4265 C.ar    1  UNL1        0.0808
      3 C          11.7424   38.7925    9.3156 C.ar    1  UNL1        0.1137
      4 C          14.0707   38.4945    9.0148 C.ar    1  UNL1        0.1332
      5 N          13.1914   40.6801    9.3276 N.ar    1  UNL1       -0.2317
      6 N          12.8151   37.9846    9.1125 N.ar    1  UNL1       -0.2382
      7 C          10.7834   41.1055    9.6488 C.3     1  UNL1        0.0618
      8 C          10.4516   41.2263   11.1377 C.3     1  UNL1        0.0094
      9 C           9.2899   42.1952   11.3451 C.3     1  UNL1        0.0220
     10 C           8.0691   41.7269   10.5583 C.3     1  UNL1        0.0937
     11 C           9.5540   40.6557    8.8587 C.3     1  UNL1        0.0996
     12 C           7.8377   42.3245    8.1016 C.2     1  UNL1        0.2490
     13 N           8.4311   41.5418    9.1543 N.am    1  UNL1       -0.2757
     14 O           8.4832   42.4999    7.0314 O.2     1  UNL1       -0.2699
     15 C           6.4888   42.9264    8.2245 C.ar    1  UNL1        0.0536
     16 C           5.4998   42.2699    8.9738 C.ar    1  UNL1        0.0045
     17 C           4.2296   42.8340    9.1236 C.ar    1  UNL1        0.0001
     18 C           3.9380   44.0651    8.5315 C.ar    1  UNL1        0.0000
     19 C           4.9174   44.7332    7.7928 C.ar    1  UNL1        0.0001
     20 C           6.1872   44.1678    7.6438 C.ar    1  UNL1        0.0045
     21 N          15.5720   40.4706    9.0289 N.pl3   1  UNL1       -0.2821
     22 H          16.3094   39.9754    9.4535 H       1  UNL1        0.1551
     23 C          14.5458   43.9943    5.7787 C.3     1  UNL1        0.0521
     24 C          15.4473   43.4269    6.8146 C.ar    1  UNL1        0.0608
     25 C          15.9220   41.7032    8.3854 C.ar    1  UNL1        0.1328
     26 C          17.1088   42.3446    8.7504 C.ar    1  UNL1        0.0344
     27 C          17.4596   43.5453    8.1307 C.ar    1  UNL1        0.0041
     28 C          16.6257   44.0937    7.1554 C.ar    1  UNL1        0.0148
     29 N          15.1236   42.2580    7.4304 N.ar    1  UNL1       -0.2349
@<TRIPOS>BOND
     1    23    24    1
     2    25    29   ar
     3    25    21    1
     4    26    27   ar
     5    28    24   ar
     6     2     5   ar
     7     3     6   ar
     8     4     1   ar
     9     7     2    1
    10     7     8    1
    11     8     9    1
    12     9    10    1
    13    10    13    1
    14    11    13    1
    15    11     7    1
    16    12    15    1
    17    16    17   ar
    18    18    19   ar
    19    20    15   ar
    20    21     1    1
    21    13    12   am
    22    24    29   ar
    23    25    26   ar
    24    27    28   ar
    25     1     5   ar
    26     2     3   ar
    27     4     6   ar
    28    12    14    2
    29    15    16   ar
    30    17    18   ar
    31    19    20   ar
    32    21    22    1
@<TRIPOS>MOLECULE
Molport-020-275-222 MCULE-6160990549 PubChem-110252899
 29 32 0 0 0
SMALL
GASTEIGER

@<TRIPOS>ATOM
      1 C          12.1678   41.6124    8.0458 C.ar    1  UNL1        0.1522
      2 C          12.4982   39.3979    8.8378 C.ar    1  UNL1        0.0808
      3 C          11.1755   39.0817    8.5037 C.ar    1  UNL1        0.1137
      4 C          10.8461   41.2881    7.7142 C.ar    1  UNL1        0.1332
      5 N          12.9585   40.6548    8.6000 N.ar    1  UNL1       -0.2317
      6 N          10.3807   40.0336    7.9499 N.ar    1  UNL1       -0.2382
      7 C          13.4110   38.3845    9.4507 C.3     1  UNL1        0.0618
      8 C          13.5261   38.5886   10.9628 C.3     1  UNL1        0.0094
      9 C          14.4449   37.5324   11.5721 C.3     1  UNL1        0.0220
     10 C          15.8210   37.5920   10.9151 C.3     1  UNL1        0.0937
     11 C          14.7923   38.4242    8.7961 C.3     1  UNL1        0.0996
     12 C          16.2363   36.3714    8.7280 C.2     1  UNL1        0.2490
     13 N          15.6784   37.4752    9.4651 N.am    1  UNL1       -0.2757
     14 O          15.7071   36.0379    7.6319 O.2     1  UNL1       -0.2699
     15 C          17.4185   35.6154    9.2052 C.ar    1  UNL1        0.0536
     16 C          18.4151   36.2749    9.9417 C.ar    1  UNL1        0.0045
     17 C          19.5246   35.5741   10.4233 C.ar    1  UNL1        0.0001
     18 C          19.6447   34.2039   10.1795 C.ar    1  UNL1        0.0000
     19 C          18.6540   33.5345    9.4573 C.ar    1  UNL1        0.0001
     20 C          17.5450   34.2366    8.9764 C.ar    1  UNL1        0.0045
     21 N          12.7128   42.9201    7.8201 N.pl3   1  UNL1       -0.2821
     22 H          12.1973   43.6762    8.1831 H       1  UNL1        0.1551
     23 C          17.5772   43.5292    7.8376 C.3     1  UNL1        0.0521
     24 C          16.2834   43.5536    7.1074 C.ar    1  UNL1        0.0608
     25 C          13.9229   43.2512    7.1258 C.ar    1  UNL1        0.1328
     26 C          13.8557   43.5904    5.7717 C.ar    1  UNL1        0.0344
     27 C          15.0274   43.9145    5.0856 C.ar    1  UNL1        0.0041
     28 C          16.2521   43.8972    5.7545 C.ar    1  UNL1        0.0148
     29 N          15.1303   43.2411    7.7577 N.ar    1  UNL1       -0.2349
@<TRIPOS>BOND
     1    23    24    1
     2    25    29   ar
     3    25    21    1
     4    26    27   ar
     5    28    24   ar
     6     2     5   ar
     7     3     6   ar
     8     4     1   ar
     9     7     2    1
    10     7     8    1
    11     8     9    1
    12     9    10    1
    13    10    13    1
    14    11    13    1
    15    11     7    1
    16    12    15    1
    17    16    17   ar
    18    18    19   ar
    19    20    15   ar
    20    21     1    1
    21    13    12   am
    22    24    29   ar
    23    25    26   ar
    24    27    28   ar
    25     1     5   ar
    26     2     3   ar
    27     4     6   ar
    28    12    14    2
    29    15    16   ar
    30    17    18   ar
    31    19    20   ar
    32    21    22    1
@<TRIPOS>MOLECULE
Molport-020-275-222 MCULE-6160990549 PubChem-110252899
 29 32 0 0 0
SMALL
GASTEIGER

@<TRIPOS>ATOM
      1 C           7.6033   40.8112    6.7640 C.ar    1  UNL1        0.1522
      2 C           9.8172   40.0346    6.3954 C.ar    1  UNL1        0.0808
      3 C           9.3474   39.1699    5.3990 C.ar    1  UNL1        0.1137
      4 C           7.1413   39.9437    5.7659 C.ar    1  UNL1        0.1332
      5 N           8.9324   40.8317    7.0509 N.ar    1  UNL1       -0.2317
      6 N           8.0210   39.1446    5.1076 N.ar    1  UNL1       -0.2382
      7 C          11.2678   40.0972    6.7526 C.3     1  UNL1        0.0618
      8 C          11.5953   39.1387    7.8997 C.3     1  UNL1        0.0094
      9 C          13.0834   39.2022    8.2352 C.3     1  UNL1        0.0220
     10 C          13.4791   40.6306    8.5984 C.3     1  UNL1        0.0937
     11 C          11.6831   41.5248    7.1097 C.3     1  UNL1        0.0996
     12 C          14.0485   42.2937    6.7666 C.2     1  UNL1        0.2490
     13 N          13.0840   41.5382    7.5228 N.am    1  UNL1       -0.2757
     14 O          13.7592   42.6529    5.5918 O.2     1  UNL1       -0.2699
     15 C          15.3691   42.6749    7.3211 C.ar    1  UNL1        0.0536
     16 C          15.9760   43.8727    6.9118 C.ar    1  UNL1        0.0045
     17 C          17.2087   44.2629    7.4429 C.ar    1  UNL1        0.0001
     18 C          17.8438   43.4622    8.3951 C.ar    1  UNL1        0.0000
     19 C          17.2445   42.2736    8.8184 C.ar    1  UNL1        0.0001
     20 C          16.0116   41.8847    8.2865 C.ar    1  UNL1        0.0045
     21 N           6.7206   41.6769    7.4917 N.pl3   1  UNL1       -0.2821
     22 H           6.3935   42.4709    7.0103 H       1  UNL1        0.1551
     23 C           7.6575   41.5605   12.3023 C.3     1  UNL1        0.0521
     24 C           6.6887   41.4558   11.1807 C.ar    1  UNL1        0.0608
     25 C           6.2608   41.5173    8.8403 C.ar    1  UNL1        0.1328
     26 C           4.9051   41.2659    9.0683 C.ar    1  UNL1        0.0344
     27 C           4.4460   41.1089   10.3773 C.ar    1  UNL1        0.0041
     28 C           5.3409   41.2038   11.4439 C.ar    1  UNL1        0.0148
     29 N           7.1158   41.6057    9.8979 N.ar    1  UNL1       -0.2349
@<TRIPOS>BOND
     1    23    24    1
     2    25    29   ar
     3    25    21    1
     4    26    27   ar
     5    28    24   ar
     6     2     5   ar
     7     3     6   ar
     8     4     1   ar
     9     7     2    1
    10     7     8    1
    11     8     9    1
    12     9    10    1
    13    10    13    1
    14    11    13    1
    15    11     7    1
    16    12    15    1
    17    16    17   ar
    18    18    19   ar
    19    20    15   ar
    20    21     1    1
    21    13    12   am
    22    24    29   ar
    23    25    26   ar
    24    27    28   ar
    25     1     5   ar
    26     2     3   ar
    27     4     6   ar
    28    12    14    2
    29    15    16   ar
    30    17    18   ar
    31    19    20   ar
    32    21    22    1
@<TRIPOS>MOLECULE
Molport-020-275-222 MCULE-6160990549 PubChem-110252899
 29 32 0 0 0
SMALL
GASTEIGER

@<TRIPOS>ATOM
      1 C           7.5936   40.4636    7.6282 C.ar    1  UNL1        0.1522
      2 C           9.7952   40.2700    6.7589 C.ar    1  UNL1        0.0808
      3 C           9.2697   40.0279    5.4836 C.ar    1  UNL1        0.1137
      4 C           7.0758   40.2212    6.3494 C.ar    1  UNL1        0.1332
      5 N           8.9428   40.4811    7.7967 N.ar    1  UNL1       -0.2317
      6 N           7.9230   40.0093    5.3086 N.ar    1  UNL1       -0.2382
      7 C          11.2703   40.2989    7.0016 C.3     1  UNL1        0.0618
      8 C          11.6689   39.3067    8.0963 C.3     1  UNL1        0.0094
      9 C          13.1798   39.3364    8.3144 C.3     1  UNL1        0.0220
     10 C          13.6298   40.7484    8.6785 C.3     1  UNL1        0.0937
     11 C          11.7395   41.7099    7.3581 C.3     1  UNL1        0.0996
     12 C          14.0846   42.4466    6.8469 C.2     1  UNL1        0.2490
     13 N          13.1686   41.6891    7.6592 N.am    1  UNL1       -0.2757
     14 O          13.7106   42.8398    5.7075 O.2     1  UNL1       -0.2699
     15 C          15.4518   42.7913    7.3039 C.ar    1  UNL1        0.0536
     16 C          16.1124   41.9530    8.2158 C.ar    1  UNL1        0.0045
     17 C          17.4121   42.2464    8.6385 C.ar    1  UNL1        0.0001
     18 C          18.0675   43.3779    8.1473 C.ar    1  UNL1        0.0000
     19 C          17.4246   44.2136    7.2311 C.ar    1  UNL1        0.0001
     20 C          16.1249   43.9189    6.8091 C.ar    1  UNL1        0.0045
     21 N           6.7473   40.6936    8.7636 N.pl3   1  UNL1       -0.2821
     22 H           6.9543   40.1747    9.5742 H       1  UNL1        0.1551
     23 C           4.7289   45.0484    7.7660 C.3     1  UNL1        0.0521
     24 C           4.6312   43.6993    8.3808 C.ar    1  UNL1        0.0608
     25 C           5.6342   41.5931    8.8520 C.ar    1  UNL1        0.1328
     26 C           4.4781   41.1767    9.5177 C.ar    1  UNL1        0.0344
     27 C           3.3882   42.0441    9.6099 C.ar    1  UNL1        0.0041
     28 C           3.4611   43.3153    9.0387 C.ar    1  UNL1        0.0148
     29 N           5.6821   42.8391    8.3021 N.ar    1  UNL1       -0.2349
@<TRIPOS>BOND
     1    23    24    1
     2    25    29   ar
     3    25    21    1
     4    26    27   ar
     5    28    24   ar
     6     2     5   ar
     7     3     6   ar
     8     4     1   ar
     9     7     2    1
    10     7     8    1
    11     8     9    1
    12     9    10    1
    13    10    13    1
    14    11    13    1
    15    11     7    1
    16    12    15    1
    17    16    17   ar
    18    18    19   ar
    19    20    15   ar
    20    21     1    1
    21    13    12   am
    22    24    29   ar
    23    25    26   ar
    24    27    28   ar
    25     1     5   ar
    26     2     3   ar
    27     4     6   ar
    28    12    14    2
    29    15    16   ar
    30    17    18   ar
    31    19    20   ar
    32    21    22    1
