@<TRIPOS>MOLECULE
Molport-053-239-364
 32 34 0 0 0
SMALL
GASTEIGER

@<TRIPOS>ATOM
      1 C          14.7565   34.0772    3.9441 C.ar    1  UNL1        0.0917
      2 C          15.0339   33.1110    2.9960 C.ar    1  UNL1        0.0417
      3 C          16.1087   32.4183    3.5187 C.ar    1  UNL1        0.1464
      4 N          16.4770   32.9570    4.6969 N.ar    1  UNL1       -0.1639
      5 N          15.6528   33.9609    4.9539 N.ar    1  UNL1       -0.2293
      6 C          15.8131   34.8139    6.0973 C.ar    1  UNL1        0.0829
      7 C          16.9974   35.5424    6.2861 C.ar    1  UNL1        0.0204
      8 C          17.1520   36.3571    7.4109 C.ar    1  UNL1        0.0162
      9 C          16.1419   36.4305    8.3809 C.ar    1  UNL1        0.0506
     10 C          14.9586   35.6935    8.1941 C.ar    1  UNL1        0.0162
     11 C          14.8033   34.8810    7.0669 C.ar    1  UNL1        0.0204
     12 C          15.3972   37.3761   10.6152 C.2     1  UNL1        0.2496
     13 O          14.5029   36.4978   10.7624 O.2     1  UNL1       -0.2698
     14 N          16.3134   37.3003    9.5130 N.am    1  UNL1       -0.2804
     15 H          17.1088   37.8800    9.5333 H       1  UNL1        0.1552
     16 C          15.5374   38.4649   11.5996 C.2     1  UNL1        0.0580
     17 C          16.6646   39.1605   11.7429 C.2     1  UNL1        0.0048
     18 C          11.9717   36.8318    4.0008 C.ar    1  UNL1        0.1689
     19 C          12.2657   34.6132    3.7769 C.ar    1  UNL1        0.1088
     20 C          13.5999   34.9951    3.8959 C.ar    1  UNL1        0.0689
     21 N          11.3696   35.6348    3.8207 N.ar    1  UNL1       -0.2221
     22 S          13.6459   36.6666    4.1003 S.2     1  UNL1       -0.0496
     23 C          10.6846   38.5604    5.2774 C.2     1  UNL1        0.2303
     24 C          10.9445   38.7821    2.7977 C.3     1  UNL1        0.1220
     25 O           9.5060   39.0105    5.2786 O.2     1  UNL1       -0.2745
     26 N          11.2591   38.0839    4.0470 N.am    1  UNL1       -0.2369
     27 C          10.5819   38.4534    7.7772 C.3     1  UNL1        0.0096
     28 C          11.4937   38.6011    6.5533 C.3     1  UNL1        0.0771
     29 C          12.2977   39.9035    6.6288 C.3     1  UNL1        0.0096
     30 C          16.8299   31.2925    2.8542 C.3     1  UNL1        0.3599
     31 F          16.5338   31.2893    1.5041 F       1  UNL1       -0.1915
     32 F          18.1944   31.4429    3.0230 F       1  UNL1       -0.1915
@<TRIPOS>BOND
     1    27    28    1
     2    28    29    1
     3    28    23    1
     4    23    26   am
     5    24    26    1
     6    18    22   ar
     7    19    21   ar
     8    20    22   ar
     9    20     1    1
    10     2     3   ar
    11     7     8   ar
    12     9    14    1
    13     9    10   ar
    14    12    16    1
    15    11     6   ar
    16    30     3    1
    17    30    31    1
    18    30    32    1
    19    26    18    1
    20     5     4   ar
    21     5     6    1
    22     5     1   ar
    23    14    12   am
    24    23    25    2
    25    18    21   ar
    26    19    20   ar
    27     1     2   ar
    28     3     4   ar
    29     6     7   ar
    30     8     9   ar
    31    12    13    2
    32    16    17    2
    33    10    11   ar
    34    14    15    1
@<TRIPOS>MOLECULE
Molport-053-239-364
 32 34 0 0 0
SMALL
GASTEIGER

@<TRIPOS>ATOM
      1 C          12.8604   38.9232    9.2522 C.ar    1  UNL1        0.0917
      2 C          13.4821   37.7660    9.6810 C.ar    1  UNL1        0.0417
      3 C          12.4404   36.9154    9.9964 C.ar    1  UNL1        0.1464
      4 N          11.2612   37.5360    9.8000 N.ar    1  UNL1       -0.1639
      5 N          11.5192   38.7525    9.3452 N.ar    1  UNL1       -0.2293
      6 C          10.4857   39.7202    9.1088 C.ar    1  UNL1        0.0829
      7 C          10.2675   40.7699   10.0141 C.ar    1  UNL1        0.0204
      8 C           9.2479   41.6976    9.7850 C.ar    1  UNL1        0.0162
      9 C           8.4090   41.5722    8.6682 C.ar    1  UNL1        0.0506
     10 C           8.6240   40.5149    7.7659 C.ar    1  UNL1        0.0162
     11 C           9.6464   39.5888    7.9940 C.ar    1  UNL1        0.0204
     12 C           7.1059   43.1423    7.1590 C.2     1  UNL1        0.2496
     13 O           7.5901   42.6385    6.1080 O.2     1  UNL1       -0.2698
     14 N           7.3876   42.5580    8.4394 N.am    1  UNL1       -0.2804
     15 H           6.8477   42.8505    9.2090 H       1  UNL1        0.1552
     16 C           6.2100   44.3106    7.0776 C.2     1  UNL1        0.0580
     17 C           5.1365   44.4457    7.8551 C.2     1  UNL1        0.0048
     18 C          14.4250   41.9904    7.3840 C.ar    1  UNL1        0.1689
     19 C          14.8239   40.5439    9.0595 C.ar    1  UNL1        0.1088
     20 C          13.5609   40.0929    8.6833 C.ar    1  UNL1        0.0689
     21 N          15.2912   41.6035    8.3472 N.ar    1  UNL1       -0.2221
     22 S          13.0364   41.0355    7.3893 S.2     1  UNL1       -0.0496
     23 C          15.8066   43.9579    6.6806 C.2     1  UNL1        0.2303
     24 C          13.6117   43.5148    5.5617 C.3     1  UNL1        0.1220
     25 O          15.6664   45.2112    6.6463 O.2     1  UNL1       -0.2745
     26 N          14.6551   43.1120    6.5083 N.am    1  UNL1       -0.2369
     27 C          17.8888   43.9338    8.0715 C.3     1  UNL1        0.0096
     28 C          17.1919   43.3718    6.8267 C.3     1  UNL1        0.0771
     29 C          18.0202   43.6508    5.5679 C.3     1  UNL1        0.0096
     30 C          12.5753   35.5388   10.5584 C.3     1  UNL1        0.3599
     31 F          11.3582   35.1288   11.0692 F       1  UNL1       -0.1915
     32 F          12.9736   34.6621    9.5656 F       1  UNL1       -0.1915
@<TRIPOS>BOND
     1    27    28    1
     2    28    29    1
     3    28    23    1
     4    23    26   am
     5    24    26    1
     6    18    22   ar
     7    19    21   ar
     8    20    22   ar
     9    20     1    1
    10     2     3   ar
    11     7     8   ar
    12     9    14    1
    13     9    10   ar
    14    12    16    1
    15    11     6   ar
    16    30     3    1
    17    30    31    1
    18    30    32    1
    19    26    18    1
    20     5     4   ar
    21     5     6    1
    22     5     1   ar
    23    14    12   am
    24    23    25    2
    25    18    21   ar
    26    19    20   ar
    27     1     2   ar
    28     3     4   ar
    29     6     7   ar
    30     8     9   ar
    31    12    13    2
    32    16    17    2
    33    10    11   ar
    34    14    15    1
@<TRIPOS>MOLECULE
Molport-053-239-364
 32 34 0 0 0
SMALL
GASTEIGER

@<TRIPOS>ATOM
      1 C          13.8122   41.7804    7.5694 C.ar    1  UNL1        0.0917
      2 C          14.7685   42.4423    6.8230 C.ar    1  UNL1        0.0417
      3 C          14.1597   43.6289    6.4631 C.ar    1  UNL1        0.1464
      4 N          12.8996   43.6644    6.9376 N.ar    1  UNL1       -0.1639
      5 N          12.6929   42.5433    7.6111 N.ar    1  UNL1       -0.2293
      6 C          11.4179   42.2131    8.1818 C.ar    1  UNL1        0.0829
      7 C          11.1658   42.4317    9.5448 C.ar    1  UNL1        0.0204
      8 C           9.9276   42.0913   10.0960 C.ar    1  UNL1        0.0162
      9 C           8.9351   41.4964    9.3036 C.ar    1  UNL1        0.0506
     10 C           9.1922   41.2707    7.9394 C.ar    1  UNL1        0.0162
     11 C          10.4302   41.6144    7.3878 C.ar    1  UNL1        0.0204
     12 C           6.4027   41.3547    9.2155 C.2     1  UNL1        0.2496
     13 O           6.3693   41.5669    7.9718 O.2     1  UNL1       -0.2698
     14 N           7.6590   41.1846    9.8884 N.am    1  UNL1       -0.2804
     15 H           7.6462   40.8325   10.8077 H       1  UNL1        0.1552
     16 C           5.1488   41.2357    9.9821 C.2     1  UNL1        0.0580
     17 C           5.1216   41.2262   11.3142 C.2     1  UNL1        0.0048
     18 C          14.8338   38.5717    9.5712 C.ar    1  UNL1        0.1689
     19 C          13.2969   39.3411    8.1205 C.ar    1  UNL1        0.1088
     20 C          14.0374   40.5090    8.2874 C.ar    1  UNL1        0.0689
     21 N          13.7329   38.2760    8.8443 N.ar    1  UNL1       -0.2221
     22 S          15.3010   40.1758    9.3504 S.2     1  UNL1       -0.0496
     23 C          14.7081   36.8016   11.3390 C.2     1  UNL1        0.2303
     24 C          16.9378   37.6698   10.6037 C.3     1  UNL1        0.1220
     25 O          15.0578   36.6844   12.5456 O.2     1  UNL1       -0.2745
     26 N          15.4803   37.6354   10.4561 N.am    1  UNL1       -0.2369
     27 C          13.8380   35.4031    9.4528 C.3     1  UNL1        0.0096
     28 C          13.5298   36.0043   10.8292 C.3     1  UNL1        0.0771
     29 C          12.2793   36.8880   10.7684 C.3     1  UNL1        0.0096
     30 C          14.7570   44.6916    5.6012 C.3     1  UNL1        0.3599
     31 F          15.8387   45.2565    6.2502 F       1  UNL1       -0.1915
     32 F          15.1772   44.1444    4.4025 F       1  UNL1       -0.1915
@<TRIPOS>BOND
     1    27    28    1
     2    28    29    1
     3    28    23    1
     4    23    26   am
     5    24    26    1
     6    18    22   ar
     7    19    21   ar
     8    20    22   ar
     9    20     1    1
    10     2     3   ar
    11     7     8   ar
    12     9    14    1
    13     9    10   ar
    14    12    16    1
    15    11     6   ar
    16    30     3    1
    17    30    31    1
    18    30    32    1
    19    26    18    1
    20     5     4   ar
    21     5     6    1
    22     5     1   ar
    23    14    12   am
    24    23    25    2
    25    18    21   ar
    26    19    20   ar
    27     1     2   ar
    28     3     4   ar
    29     6     7   ar
    30     8     9   ar
    31    12    13    2
    32    16    17    2
    33    10    11   ar
    34    14    15    1
@<TRIPOS>MOLECULE
Molport-053-239-364
 32 34 0 0 0
SMALL
GASTEIGER

@<TRIPOS>ATOM
      1 C          11.5252   41.4708    9.3271 C.ar    1  UNL1        0.0917
      2 C          10.2188   41.8691    9.5377 C.ar    1  UNL1        0.0417
      3 C           9.9088   41.3752   10.7899 C.ar    1  UNL1        0.1464
      4 N          10.9563   40.6917   11.2896 N.ar    1  UNL1       -0.1639
      5 N          11.9364   40.7544   10.4015 N.ar    1  UNL1       -0.2293
      6 C          13.1788   40.0570   10.5769 C.ar    1  UNL1        0.0829
      7 C          13.4460   39.3591   11.7645 C.ar    1  UNL1        0.0204
      8 C          14.6651   38.6973   11.9339 C.ar    1  UNL1        0.0162
      9 C          15.6487   38.7505   10.9357 C.ar    1  UNL1        0.0506
     10 C          15.3823   39.4571    9.7492 C.ar    1  UNL1        0.0162
     11 C          14.1612   40.1165    9.5790 C.ar    1  UNL1        0.0204
     12 C          18.1091   38.3588   10.4520 C.2     1  UNL1        0.2496
     13 O          18.2285   39.4528    9.8340 O.2     1  UNL1       -0.2698
     14 N          16.8819   38.0350   11.1223 N.am    1  UNL1       -0.2804
     15 H          16.8847   37.2756   11.7488 H       1  UNL1        0.1552
     16 C          19.2449   37.4216   10.5283 C.2     1  UNL1        0.0580
     17 C          19.0835   36.0991   10.5337 C.2     1  UNL1        0.0048
     18 C          13.8666   42.8801    6.5204 C.ar    1  UNL1        0.1689
     19 C          12.1408   41.4757    6.8491 C.ar    1  UNL1        0.1088
     20 C          12.3499   41.8706    8.1684 C.ar    1  UNL1        0.0689
     21 N          12.9922   42.0258    5.9431 N.ar    1  UNL1       -0.2221
     22 S          13.6219   42.9750    8.1851 S.2     1  UNL1       -0.0496
     23 C          16.0659   44.0780    6.4742 C.2     1  UNL1        0.2303
     24 C          14.6806   43.9391    4.3939 C.3     1  UNL1        0.1220
     25 O          16.4672   45.2488    6.2294 O.2     1  UNL1       -0.2745
     26 N          14.9023   43.5722    5.7951 N.am    1  UNL1       -0.2369
     27 C          17.2393   43.9843    8.6844 C.3     1  UNL1        0.0096
     28 C          16.8601   43.2059    7.4191 C.3     1  UNL1        0.0771
     29 C          18.1113   42.6674    6.7171 C.3     1  UNL1        0.0096
     30 C           8.5861   41.4914   11.4727 C.3     1  UNL1        0.3599
     31 F           8.5487   40.6304   12.5532 F       1  UNL1       -0.1915
     32 F           8.3969   42.7884   11.9143 F       1  UNL1       -0.1915
@<TRIPOS>BOND
     1    27    28    1
     2    28    29    1
     3    28    23    1
     4    23    26   am
     5    24    26    1
     6    18    22   ar
     7    19    21   ar
     8    20    22   ar
     9    20     1    1
    10     2     3   ar
    11     7     8   ar
    12     9    14    1
    13     9    10   ar
    14    12    16    1
    15    11     6   ar
    16    30     3    1
    17    30    31    1
    18    30    32    1
    19    26    18    1
    20     5     4   ar
    21     5     6    1
    22     5     1   ar
    23    14    12   am
    24    23    25    2
    25    18    21   ar
    26    19    20   ar
    27     1     2   ar
    28     3     4   ar
    29     6     7   ar
    30     8     9   ar
    31    12    13    2
    32    16    17    2
    33    10    11   ar
    34    14    15    1
@<TRIPOS>MOLECULE
Molport-053-239-364
 32 34 0 0 0
SMALL
GASTEIGER

@<TRIPOS>ATOM
      1 C          13.3531   42.6749    7.4737 C.ar    1  UNL1        0.0917
      2 C          14.0178   43.7630    6.9409 C.ar    1  UNL1        0.0417
      3 C          15.3360   43.3563    6.8691 C.ar    1  UNL1        0.1464
      4 N          15.4622   42.1085    7.3605 N.ar    1  UNL1       -0.1639
      5 N          14.2572   41.6966    7.7232 N.ar    1  UNL1       -0.2293
      6 C          14.0387   40.4339    8.3700 C.ar    1  UNL1        0.0829
      7 C          14.6772   40.1310    9.5823 C.ar    1  UNL1        0.0204
      8 C          14.4724   38.8926   10.1965 C.ar    1  UNL1        0.0162
      9 C          13.6551   37.9255    9.5935 C.ar    1  UNL1        0.0506
     10 C          13.0221   38.2278    8.3745 C.ar    1  UNL1        0.0162
     11 C          13.2250   39.4682    7.7620 C.ar    1  UNL1        0.0204
     12 C          12.1391   36.1295   10.5512 C.2     1  UNL1        0.2496
     13 O          11.1085   36.6216   10.0141 O.2     1  UNL1       -0.2698
     14 N          13.4364   36.6713   10.2619 N.am    1  UNL1       -0.2804
     15 H          14.2256   36.1518   10.5384 H       1  UNL1        0.1552
     16 C          12.0245   34.9643   11.4475 C.2     1  UNL1        0.0580
     17 C          10.9236   34.7086   12.1530 C.2     1  UNL1        0.0048
     18 C           9.5388   42.4524    8.3383 C.ar    1  UNL1        0.1689
     19 C          11.0021   42.0867    6.6698 C.ar    1  UNL1        0.1088
     20 C          11.8870   42.5776    7.6271 C.ar    1  UNL1        0.0689
     21 N           9.7019   42.0332    7.0633 N.ar    1  UNL1       -0.2221
     22 S          11.0069   42.9180    9.0225 S.2     1  UNL1       -0.0496
     23 C           7.2409   43.4331    8.5176 C.2     1  UNL1        0.2303
     24 C           8.0548   41.8413   10.2697 C.3     1  UNL1        0.1220
     25 O           6.6126   44.1515    9.3427 O.2     1  UNL1       -0.2745
     26 N           8.2575   42.5325    8.9937 N.am    1  UNL1       -0.2369
     27 C           5.6564   44.4040    6.8391 C.3     1  UNL1        0.0096
     28 C           6.8601   43.4792    7.0558 C.3     1  UNL1        0.0771
     29 C           6.5596   42.0670    6.5423 C.3     1  UNL1        0.0096
     30 C          16.4839   44.1896    6.4033 C.3     1  UNL1        0.3599
     31 F          17.1192   44.7496    7.4955 F       1  UNL1       -0.1915
     32 F          17.3825   43.4042    5.7042 F       1  UNL1       -0.1915
@<TRIPOS>BOND
     1    27    28    1
     2    28    29    1
     3    28    23    1
     4    23    26   am
     5    24    26    1
     6    18    22   ar
     7    19    21   ar
     8    20    22   ar
     9    20     1    1
    10     2     3   ar
    11     7     8   ar
    12     9    14    1
    13     9    10   ar
    14    12    16    1
    15    11     6   ar
    16    30     3    1
    17    30    31    1
    18    30    32    1
    19    26    18    1
    20     5     4   ar
    21     5     6    1
    22     5     1   ar
    23    14    12   am
    24    23    25    2
    25    18    21   ar
    26    19    20   ar
    27     1     2   ar
    28     3     4   ar
    29     6     7   ar
    30     8     9   ar
    31    12    13    2
    32    16    17    2
    33    10    11   ar
    34    14    15    1
@<TRIPOS>MOLECULE
Molport-053-239-364
 32 34 0 0 0
SMALL
GASTEIGER

@<TRIPOS>ATOM
      1 C          13.7585   41.9332    7.8152 C.ar    1  UNL1        0.0917
      2 C          14.7742   42.5967    7.1535 C.ar    1  UNL1        0.0417
      3 C          14.1260   43.5790    6.4302 C.ar    1  UNL1        0.1464
      4 N          12.7954   43.4908    6.6200 N.ar    1  UNL1       -0.1639
      5 N          12.5759   42.4937    7.4632 N.ar    1  UNL1       -0.2293
      6 C          11.2531   42.0664    7.8208 C.ar    1  UNL1        0.0829
      7 C          10.6149   42.5884    8.9563 C.ar    1  UNL1        0.0204
      8 C           9.3339   42.1540    9.3070 C.ar    1  UNL1        0.0162
      9 C           8.6846   41.1679    8.5503 C.ar    1  UNL1        0.0506
     10 C           9.3289   40.6399    7.4170 C.ar    1  UNL1        0.0162
     11 C          10.6094   41.0772    7.0648 C.ar    1  UNL1        0.0204
     12 C           6.1765   41.5401    8.6579 C.2     1  UNL1        0.2496
     13 O           6.2241   42.5287    7.8747 O.2     1  UNL1       -0.2698
     14 N           7.3544   40.7613    8.9148 N.am    1  UNL1       -0.2804
     15 H           7.2448   39.8947    9.3690 H       1  UNL1        0.1552
     16 C           4.8994   41.1489    9.2826 C.2     1  UNL1        0.0580
     17 C           4.6886   41.2332   10.5955 C.2     1  UNL1        0.0048
     18 C          14.5696   38.9054   10.1648 C.ar    1  UNL1        0.1689
     19 C          13.1605   40.6435    9.9361 C.ar    1  UNL1        0.1088
     20 C          13.9636   40.8707    8.8209 C.ar    1  UNL1        0.0689
     21 N          13.5091   39.5634   10.6846 N.ar    1  UNL1       -0.2221
     22 S          15.1232   39.6504    8.7581 S.2     1  UNL1       -0.0496
     23 C          16.4984   37.3283   10.4229 C.2     1  UNL1        0.2303
     24 C          14.3490   36.8723   11.6221 C.3     1  UNL1        0.1220
     25 O          16.7236   36.1093   10.1885 O.2     1  UNL1       -0.2745
     26 N          15.1681   37.7467   10.7785 N.am    1  UNL1       -0.2369
     27 C          18.9884   37.5737   10.3187 C.3     1  UNL1        0.0096
     28 C          17.6464   38.3111   10.3987 C.3     1  UNL1        0.0771
     29 C          17.5958   39.2146   11.6354 C.3     1  UNL1        0.0096
     30 C          14.7734   44.5499    5.4989 C.3     1  UNL1        0.3599
     31 F          15.8902   45.0939    6.1047 F       1  UNL1       -0.1915
     32 F          15.1523   43.9050    4.3355 F       1  UNL1       -0.1915
@<TRIPOS>BOND
     1    27    28    1
     2    28    29    1
     3    28    23    1
     4    23    26   am
     5    24    26    1
     6    18    22   ar
     7    19    21   ar
     8    20    22   ar
     9    20     1    1
    10     2     3   ar
    11     7     8   ar
    12     9    14    1
    13     9    10   ar
    14    12    16    1
    15    11     6   ar
    16    30     3    1
    17    30    31    1
    18    30    32    1
    19    26    18    1
    20     5     4   ar
    21     5     6    1
    22     5     1   ar
    23    14    12   am
    24    23    25    2
    25    18    21   ar
    26    19    20   ar
    27     1     2   ar
    28     3     4   ar
    29     6     7   ar
    30     8     9   ar
    31    12    13    2
    32    16    17    2
    33    10    11   ar
    34    14    15    1
@<TRIPOS>MOLECULE
Molport-053-239-364
 32 34 0 0 0
SMALL
GASTEIGER

@<TRIPOS>ATOM
      1 C          11.6168   38.2501    9.7232 C.ar    1  UNL1        0.0917
      2 C          11.3301   36.9232    9.9817 C.ar    1  UNL1        0.0417
      3 C          12.5321   36.2703    9.7889 C.ar    1  UNL1        0.1464
      4 N          13.4787   37.1483    9.4049 N.ar    1  UNL1       -0.1639
      5 N          12.9212   38.3488    9.3693 N.ar    1  UNL1       -0.2293
      6 C          13.6291   39.5120    8.9150 C.ar    1  UNL1        0.0829
      7 C          13.0901   40.3310    7.9112 C.ar    1  UNL1        0.0204
      8 C          13.7938   41.4519    7.4626 C.ar    1  UNL1        0.0162
      9 C          15.0604   41.7528    7.9841 C.ar    1  UNL1        0.0506
     10 C          15.6027   40.9264    8.9846 C.ar    1  UNL1        0.0162
     11 C          14.8967   39.8068    9.4352 C.ar    1  UNL1        0.0204
     12 C          15.3715   43.6830    6.3659 C.2     1  UNL1        0.2496
     13 O          14.2545   43.4844    5.8128 O.2     1  UNL1       -0.2698
     14 N          15.7495   42.9293    7.5274 N.am    1  UNL1       -0.2804
     15 H          16.5293   43.2371    8.0437 H       1  UNL1        0.1552
     16 C          16.2809   44.7227    5.8499 C.2     1  UNL1        0.0580
     17 C          15.8524   45.9272    5.4747 C.2     1  UNL1        0.0048
     18 C           8.9581   41.1257    9.8139 C.ar    1  UNL1        0.1689
     19 C          10.7899   40.3714   10.8789 C.ar    1  UNL1        0.1088
     20 C          10.6716   39.3684    9.9196 C.ar    1  UNL1        0.0689
     21 N           9.8307   41.3334   10.8254 N.ar    1  UNL1       -0.2221
     22 S           9.3396   39.7280    8.9531 S.2     1  UNL1       -0.0496
     23 C           7.7390   42.7423    8.3392 C.2     1  UNL1        0.2303
     24 C           6.8408   42.2128   10.6149 C.3     1  UNL1        0.1220
     25 O           7.3971   43.9555    8.3946 O.2     1  UNL1       -0.2745
     26 N           7.8225   41.9744    9.5535 N.am    1  UNL1       -0.2369
     27 C           7.7744   43.1205    5.8640 C.3     1  UNL1        0.0096
     28 C           7.9805   42.1022    6.9916 C.3     1  UNL1        0.0771
     29 C           7.0575   40.8929    6.8070 C.3     1  UNL1        0.0096
     30 C          12.7543   34.7979    9.8967 C.3     1  UNL1        0.3599
     31 F          13.9518   34.4676    9.2908 F       1  UNL1       -0.1915
     32 F          12.7967   34.4246   11.2278 F       1  UNL1       -0.1915
@<TRIPOS>BOND
     1    27    28    1
     2    28    29    1
     3    28    23    1
     4    23    26   am
     5    24    26    1
     6    18    22   ar
     7    19    21   ar
     8    20    22   ar
     9    20     1    1
    10     2     3   ar
    11     7     8   ar
    12     9    14    1
    13     9    10   ar
    14    12    16    1
    15    11     6   ar
    16    30     3    1
    17    30    31    1
    18    30    32    1
    19    26    18    1
    20     5     4   ar
    21     5     6    1
    22     5     1   ar
    23    14    12   am
    24    23    25    2
    25    18    21   ar
    26    19    20   ar
    27     1     2   ar
    28     3     4   ar
    29     6     7   ar
    30     8     9   ar
    31    12    13    2
    32    16    17    2
    33    10    11   ar
    34    14    15    1
@<TRIPOS>MOLECULE
Molport-053-239-364
 32 34 0 0 0
SMALL
GASTEIGER

@<TRIPOS>ATOM
      1 C          14.2081   41.6794    7.7822 C.ar    1  UNL1        0.0917
      2 C          15.1853   42.3337    7.0566 C.ar    1  UNL1        0.0417
      3 C          14.5477   43.4521    6.5559 C.ar    1  UNL1        0.1464
      4 N          13.2542   43.4536    6.9312 N.ar    1  UNL1       -0.1639
      5 N          13.0520   42.3789    7.6778 N.ar    1  UNL1       -0.2293
      6 C          11.7544   42.0230    8.1778 C.ar    1  UNL1        0.0829
      7 C          10.7883   41.4642    7.3272 C.ar    1  UNL1        0.0204
      8 C           9.5217   41.1366    7.8184 C.ar    1  UNL1        0.0162
      9 C           9.1887   41.3934    9.1563 C.ar    1  UNL1        0.0506
     10 C          10.1556   41.9609   10.0055 C.ar    1  UNL1        0.0162
     11 C          11.4238   42.2855    9.5143 C.ar    1  UNL1        0.0204
     12 C           6.7859   41.9270    9.7748 C.2     1  UNL1        0.2496
     13 O           6.8325   43.0679    9.2371 O.2     1  UNL1       -0.2698
     14 N           7.8891   41.0182    9.6438 N.am    1  UNL1       -0.2804
     15 H           7.7471   40.0793    9.9040 H       1  UNL1        0.1552
     16 C           5.5789   41.4998   10.5062 C.2     1  UNL1        0.0580
     17 C           4.5398   40.9263    9.9009 C.2     1  UNL1        0.0048
     18 C          14.4121   38.3533    9.8416 C.ar    1  UNL1        0.1689
     19 C          15.3414   40.3947    9.6755 C.ar    1  UNL1        0.1088
     20 C          14.4399   40.4830    8.6173 C.ar    1  UNL1        0.0689
     21 N          15.3324   39.2089   10.3404 N.ar    1  UNL1       -0.2221
     22 S          13.5810   39.0357    8.5440 S.2     1  UNL1       -0.0496
     23 C          14.2982   35.8815    9.4521 C.2     1  UNL1        0.2303
     24 C          13.7394   36.8129   11.7074 C.3     1  UNL1        0.1220
     25 O          13.4135   34.9840    9.5108 O.2     1  UNL1       -0.2745
     26 N          14.2176   37.0136   10.3369 N.am    1  UNL1       -0.2369
     27 C          15.6080   34.2437    8.0836 C.3     1  UNL1        0.0096
     28 C          15.4643   35.7107    8.5060 C.3     1  UNL1        0.0771
     29 C          16.7547   36.2168    9.1594 C.3     1  UNL1        0.0096
     30 C          15.1566   44.4761    5.6559 C.3     1  UNL1        0.3599
     31 F          15.0675   44.0477    4.3449 F       1  UNL1       -0.1915
     32 F          14.4872   45.6788    5.7909 F       1  UNL1       -0.1915
@<TRIPOS>BOND
     1    27    28    1
     2    28    29    1
     3    28    23    1
     4    23    26   am
     5    24    26    1
     6    18    22   ar
     7    19    21   ar
     8    20    22   ar
     9    20     1    1
    10     2     3   ar
    11     7     8   ar
    12     9    14    1
    13     9    10   ar
    14    12    16    1
    15    11     6   ar
    16    30     3    1
    17    30    31    1
    18    30    32    1
    19    26    18    1
    20     5     4   ar
    21     5     6    1
    22     5     1   ar
    23    14    12   am
    24    23    25    2
    25    18    21   ar
    26    19    20   ar
    27     1     2   ar
    28     3     4   ar
    29     6     7   ar
    30     8     9   ar
    31    12    13    2
    32    16    17    2
    33    10    11   ar
    34    14    15    1
@<TRIPOS>MOLECULE
Molport-053-239-364
 32 34 0 0 0
SMALL
GASTEIGER

@<TRIPOS>ATOM
      1 C          13.2576   42.5097    7.3256 C.ar    1  UNL1        0.0917
      2 C          13.8528   43.7106    6.9891 C.ar    1  UNL1        0.0417
      3 C          15.2060   43.4734    7.1336 C.ar    1  UNL1        0.1464
      4 N          15.4112   42.2136    7.5636 N.ar    1  UNL1       -0.1639
      5 N          14.2276   41.6304    7.6758 N.ar    1  UNL1       -0.2293
      6 C          14.0715   40.3013    8.1948 C.ar    1  UNL1        0.0829
      7 C          15.0564   39.7343    9.0181 C.ar    1  UNL1        0.0204
      8 C          14.9046   38.4333    9.5050 C.ar    1  UNL1        0.0162
      9 C          13.7852   37.6665    9.1502 C.ar    1  UNL1        0.0506
     10 C          12.8029   38.2335    8.3185 C.ar    1  UNL1        0.0162
     11 C          12.9538   39.5364    7.8342 C.ar    1  UNL1        0.0204
     12 C          14.2633   35.1741    9.1374 C.2     1  UNL1        0.2496
     13 O          15.1788   35.2883    8.2761 O.2     1  UNL1       -0.2698
     14 N          13.6382   36.3420    9.6900 N.am    1  UNL1       -0.2804
     15 H          13.0735   36.2291   10.4885 H       1  UNL1        0.1552
     16 C          13.8574   33.8401    9.6168 C.2     1  UNL1        0.0580
     17 C          13.9115   32.7547    8.8460 C.2     1  UNL1        0.0048
     18 C           9.4209   41.7316    7.4673 C.ar    1  UNL1        0.1689
     19 C          11.1705   41.7700    6.0544 C.ar    1  UNL1        0.1088
     20 C          11.8134   42.2236    7.2038 C.ar    1  UNL1        0.0689
     21 N           9.8435   41.5133    6.2018 N.ar    1  UNL1       -0.2221
     22 S          10.6814   42.2651    8.4506 S.2     1  UNL1       -0.0496
     23 C           7.3982   42.5894    8.6704 C.2     1  UNL1        0.2303
     24 C           7.3814   40.2842    7.6948 C.3     1  UNL1        0.1220
     25 O           6.7242   42.2563    9.6835 O.2     1  UNL1       -0.2745
     26 N           8.0519   41.5725    7.8896 N.am    1  UNL1       -0.2369
     27 C           8.1135   44.8942    9.3392 C.3     1  UNL1        0.0096
     28 C           7.4422   44.0420    8.2555 C.3     1  UNL1        0.0771
     29 C           6.0271   44.5519    7.9625 C.3     1  UNL1        0.0096
     30 C          16.2952   44.4751    6.9352 C.3     1  UNL1        0.3599
     31 F          17.1501   44.4465    8.0208 F       1  UNL1       -0.1915
     32 F          17.0047   44.1774    5.7859 F       1  UNL1       -0.1915
@<TRIPOS>BOND
     1    27    28    1
     2    28    29    1
     3    28    23    1
     4    23    26   am
     5    24    26    1
     6    18    22   ar
     7    19    21   ar
     8    20    22   ar
     9    20     1    1
    10     2     3   ar
    11     7     8   ar
    12     9    14    1
    13     9    10   ar
    14    12    16    1
    15    11     6   ar
    16    30     3    1
    17    30    31    1
    18    30    32    1
    19    26    18    1
    20     5     4   ar
    21     5     6    1
    22     5     1   ar
    23    14    12   am
    24    23    25    2
    25    18    21   ar
    26    19    20   ar
    27     1     2   ar
    28     3     4   ar
    29     6     7   ar
    30     8     9   ar
    31    12    13    2
    32    16    17    2
    33    10    11   ar
    34    14    15    1
@<TRIPOS>MOLECULE
Molport-053-239-364
 32 34 0 0 0
SMALL
GASTEIGER

@<TRIPOS>ATOM
      1 C          10.2114   40.3882   10.4960 C.ar    1  UNL1        0.0917
      2 C           9.2194   40.8669   11.3305 C.ar    1  UNL1        0.0417
      3 C           9.8863   41.2160   12.4887 C.ar    1  UNL1        0.1464
      4 N          11.1979   40.9333   12.3699 N.ar    1  UNL1       -0.1639
      5 N          11.3925   40.4345   11.1589 N.ar    1  UNL1       -0.2293
      6 C          12.6701   39.9442   10.7255 C.ar    1  UNL1        0.0829
      7 C          13.2849   38.8686   11.3846 C.ar    1  UNL1        0.0204
      8 C          14.5366   38.4088   10.9671 C.ar    1  UNL1        0.0162
      9 C          15.2089   39.0366    9.9084 C.ar    1  UNL1        0.0506
     10 C          14.5948   40.1196    9.2540 C.ar    1  UNL1        0.0162
     11 C          13.3409   40.5773    9.6703 C.ar    1  UNL1        0.0204
     12 C          16.8371   37.1335    9.4988 C.2     1  UNL1        0.2496
     13 O          15.9516   36.2516    9.6753 O.2     1  UNL1       -0.2698
     14 N          16.4816   38.5239    9.4786 N.am    1  UNL1       -0.2804
     15 H          17.1510   39.1667    9.1500 H       1  UNL1        0.1552
     16 C          18.2396   36.7413    9.2675 C.2     1  UNL1        0.0580
     17 C          19.0577   36.3890   10.2583 C.2     1  UNL1        0.0048
     18 C           9.2302   39.4854    6.8125 C.ar    1  UNL1        0.1689
     19 C          10.8708   39.2136    8.3270 C.ar    1  UNL1        0.1088
     20 C          10.0100   40.0055    9.0834 C.ar    1  UNL1        0.0689
     21 N          10.4414   38.9409    7.0661 N.ar    1  UNL1       -0.2221
     22 S           8.6510   40.3388    8.1454 S.2     1  UNL1       -0.0496
     23 C           9.3030   39.1362    4.3332 C.2     1  UNL1        0.2303
     24 C           7.1382   39.7239    5.4441 C.3     1  UNL1        0.1220
     25 O           9.0574   39.8220    3.3032 O.2     1  UNL1       -0.2745
     26 N           8.5597   39.3816    5.5408 N.am    1  UNL1       -0.2369
     27 C          11.6605   38.5474    3.7276 C.3     1  UNL1        0.0096
     28 C          10.3202   38.0211    4.2547 C.3     1  UNL1        0.0771
     29 C           9.7951   36.8871    3.3677 C.3     1  UNL1        0.0096
     30 C           9.2566   41.7465   13.7341 C.3     1  UNL1        0.3599
     31 F           7.9962   42.2324   13.4415 F       1  UNL1       -0.1915
     32 F           9.1513   40.7379   14.6746 F       1  UNL1       -0.1915
@<TRIPOS>BOND
     1    27    28    1
     2    28    29    1
     3    28    23    1
     4    23    26   am
     5    24    26    1
     6    18    22   ar
     7    19    21   ar
     8    20    22   ar
     9    20     1    1
    10     2     3   ar
    11     7     8   ar
    12     9    14    1
    13     9    10   ar
    14    12    16    1
    15    11     6   ar
    16    30     3    1
    17    30    31    1
    18    30    32    1
    19    26    18    1
    20     5     4   ar
    21     5     6    1
    22     5     1   ar
    23    14    12   am
    24    23    25    2
    25    18    21   ar
    26    19    20   ar
    27     1     2   ar
    28     3     4   ar
    29     6     7   ar
    30     8     9   ar
    31    12    13    2
    32    16    17    2
    33    10    11   ar
    34    14    15    1
