@<TRIPOS>MOLECULE
MolPort-020-295-380 MCULE-6693225507 PubChem-110267461
 32 35 0 0 0
SMALL
GASTEIGER

@<TRIPOS>ATOM
      1 C          12.0372   39.3936    9.2423 C.3     1  UNL1        0.0603
      2 C          12.0383   40.3090   10.4696 C.3     1  UNL1        0.0094
      3 C          12.6854   39.6029   11.6598 C.3     1  UNL1        0.0219
      4 C          14.1067   39.1731   11.3064 C.3     1  UNL1        0.0934
      5 C          13.4590   38.9489    8.9006 C.3     1  UNL1        0.0992
      6 C          14.5862   37.0260   10.0851 C.2     1  UNL1        0.2260
      7 N          14.0813   38.3697   10.0874 N.am    1  UNL1       -0.2791
      8 O          15.1096   36.5454   11.1260 O.2     1  UNL1       -0.2749
      9 C          11.4565   41.7352    6.4012 C.ar    1  UNL1        0.2214
     10 C           9.5858   40.2878    6.5025 C.ar    1  UNL1        0.1031
     11 C          10.1429   39.6257    7.5942 C.ar    1  UNL1        0.0356
     12 C          11.3858   40.0562    8.0709 C.ar    1  UNL1        0.0647
     13 N          10.2480   41.3249    5.9280 N.ar    1  UNL1       -0.2120
     14 N          12.0126   41.0992    7.4659 N.ar    1  UNL1       -0.2179
     15 N          12.1561   42.8305    5.7985 N.pl3   1  UNL1       -0.2680
     16 H          11.6624   43.3594    5.1308 H       1  UNL1        0.1565
     17 C          17.5175   44.4052    6.8989 C.3     1  UNL1        0.0327
     18 C          16.1198   43.9862    6.6171 C.ar    1  UNL1       -0.0026
     19 C          15.2720   44.8122    5.8774 C.ar    1  UNL1        0.0960
     20 C          13.5039   43.2315    6.0726 C.ar    1  UNL1        0.1343
     21 C          14.3270   42.3813    6.8165 C.ar    1  UNL1        0.0342
     22 C          15.6418   42.7634    7.0889 C.ar    1  UNL1        0.0001
     23 N          13.9941   44.4215    5.6233 N.ar    1  UNL1       -0.2293
     24 C          14.4752   36.1597    8.8691 C.3     1  UNL1        0.0899
     25 C          15.6449   35.1852    8.7810 C.3     1  UNL1        0.0359
     26 C          15.8213   34.6567    7.3957 C.ar    1  UNL1       -0.0215
     27 C          15.8896   35.5307    6.3031 C.ar    1  UNL1       -0.0019
     28 C          16.0484   35.0238    5.0099 C.ar    1  UNL1        0.0293
     29 C          16.1369   33.6433    4.8061 C.ar    1  UNL1        0.1401
     30 C          16.0631   32.7691    5.8950 C.ar    1  UNL1        0.0293
     31 C          15.9037   33.2754    7.1885 C.ar    1  UNL1       -0.0019
     32 F          16.2912   33.1526    3.5530 F       1  UNL1       -0.2042
@<TRIPOS>BOND
     1    17    18    1
     2    19    23   ar
     3    20    21   ar
     4    20    15    1
     5    22    18   ar
     6     9    14   ar
     7    10    13   ar
     8    11    12   ar
     9     1    12    1
    10     1     2    1
    11     2     3    1
    12     3     4    1
    13     4     7    1
    14     5     7    1
    15     5     1    1
    16    24     6    1
    17    24    25    1
    18    25    26    1
    19    27    28   ar
    20    29    30   ar
    21    29    32    1
    22    31    26   ar
    23    15     9    1
    24     7     6   am
    25    18    19   ar
    26    20    23   ar
    27    21    22   ar
    28     9    13   ar
    29    10    11   ar
    30    12    14   ar
    31     6     8    2
    32    26    27   ar
    33    28    29   ar
    34    30    31   ar
    35    15    16    1
@<TRIPOS>MOLECULE
MolPort-020-295-380 MCULE-6693225507 PubChem-110267461
 32 35 0 0 0
SMALL
GASTEIGER

@<TRIPOS>ATOM
      1 C           9.7195   42.2061    8.7909 C.3     1  UNL1        0.0603
      2 C          10.7792   42.8040    9.7202 C.3     1  UNL1        0.0094
      3 C          10.1354   43.2949   11.0158 C.3     1  UNL1        0.0219
      4 C           9.3997   42.1482   11.7040 C.3     1  UNL1        0.0934
      5 C           8.9708   41.0702    9.4878 C.3     1  UNL1        0.0992
      6 C           7.0525   41.4988   11.0714 C.2     1  UNL1        0.2260
      7 N           8.4546   41.5470   10.7674 N.am    1  UNL1       -0.2791
      8 O           6.6306   41.9264   12.1792 O.2     1  UNL1       -0.2749
      9 C          12.0512   41.9383    5.8954 C.ar    1  UNL1        0.2214
     10 C          10.3397   40.3374    5.5601 C.ar    1  UNL1        0.1031
     11 C           9.7303   40.7223    6.7521 C.ar    1  UNL1        0.0356
     12 C          10.3245   41.7408    7.5053 C.ar    1  UNL1        0.0647
     13 N          11.4829   40.9481    5.1545 N.ar    1  UNL1       -0.2120
     14 N          11.4680   42.3250    7.0607 N.ar    1  UNL1       -0.2179
     15 N          13.2557   42.5858    5.4687 N.pl3   1  UNL1       -0.2680
     16 H          13.3097   42.8429    4.5199 H       1  UNL1        0.1565
     17 C          17.7603   43.7992    8.7354 C.3     1  UNL1        0.0327
     18 C          16.5836   43.4743    7.8880 C.ar    1  UNL1       -0.0026
     19 C          16.1554   44.3671    6.9044 C.ar    1  UNL1        0.0960
     20 C          14.3895   42.8959    6.2879 C.ar    1  UNL1        0.1343
     21 C          14.7923   41.9804    7.2640 C.ar    1  UNL1        0.0342
     22 C          15.8957   42.2738    8.0673 C.ar    1  UNL1        0.0001
     23 N          15.0775   44.0625    6.1326 N.ar    1  UNL1       -0.2293
     24 C           6.0629   40.9751   10.0775 C.3     1  UNL1        0.0899
     25 C           4.7283   41.7034   10.1960 C.3     1  UNL1        0.0359
     26 C           4.6722   42.9028    9.3084 C.ar    1  UNL1       -0.0215
     27 C           3.4477   43.5194    9.0205 C.ar    1  UNL1       -0.0019
     28 C           3.4069   44.6381    8.1831 C.ar    1  UNL1        0.0293
     29 C           4.5887   45.1410    7.6302 C.ar    1  UNL1        0.1401
     30 C           5.8112   44.5232    7.9118 C.ar    1  UNL1        0.0293
     31 C           5.8526   43.4041    8.7488 C.ar    1  UNL1       -0.0019
     32 F           4.5488   46.2250    6.8190 F       1  UNL1       -0.2042
@<TRIPOS>BOND
     1    17    18    1
     2    19    23   ar
     3    20    21   ar
     4    20    15    1
     5    22    18   ar
     6     9    14   ar
     7    10    13   ar
     8    11    12   ar
     9     1    12    1
    10     1     2    1
    11     2     3    1
    12     3     4    1
    13     4     7    1
    14     5     7    1
    15     5     1    1
    16    24     6    1
    17    24    25    1
    18    25    26    1
    19    27    28   ar
    20    29    30   ar
    21    29    32    1
    22    31    26   ar
    23    15     9    1
    24     7     6   am
    25    18    19   ar
    26    20    23   ar
    27    21    22   ar
    28     9    13   ar
    29    10    11   ar
    30    12    14   ar
    31     6     8    2
    32    26    27   ar
    33    28    29   ar
    34    30    31   ar
    35    15    16    1
@<TRIPOS>MOLECULE
MolPort-020-295-380 MCULE-6693225507 PubChem-110267461
 32 35 0 0 0
SMALL
GASTEIGER

@<TRIPOS>ATOM
      1 C          12.5804   37.9366    8.9551 C.3     1  UNL1        0.0603
      2 C          12.5206   38.1083   10.4753 C.3     1  UNL1        0.0094
      3 C          13.3454   37.0239   11.1664 C.3     1  UNL1        0.0219
      4 C          14.7897   37.0691   10.6750 C.3     1  UNL1        0.0934
      5 C          14.0284   37.9634    8.4663 C.3     1  UNL1        0.0992
      6 C          15.5137   35.9245    8.5543 C.2     1  UNL1        0.2260
      7 N          14.8088   36.9846    9.2174 N.am    1  UNL1       -0.2791
      8 O          16.1719   35.0857    9.2263 O.2     1  UNL1       -0.2749
      9 C          11.6817   40.9346    6.9309 C.ar    1  UNL1        0.2214
     10 C           9.6533   39.9407    7.6395 C.ar    1  UNL1        0.1031
     11 C          10.3614   38.9424    8.3045 C.ar    1  UNL1        0.0356
     12 C          11.7594   38.9740    8.2584 C.ar    1  UNL1        0.0647
     13 N          10.3213   40.9139    6.9680 N.ar    1  UNL1       -0.2120
     14 N          12.3865   39.9673    7.5753 N.ar    1  UNL1       -0.2179
     15 N          12.3890   41.9614    6.2254 N.pl3   1  UNL1       -0.2680
     16 H          11.9248   42.3771    5.4632 H       1  UNL1        0.1565
     17 C          17.6210   43.8895    7.3845 C.3     1  UNL1        0.0327
     18 C          16.2548   43.3933    7.0752 C.ar    1  UNL1       -0.0026
     19 C          15.7476   42.2704    7.7309 C.ar    1  UNL1        0.0960
     20 C          13.7059   42.4423    6.5206 C.ar    1  UNL1        0.1343
     21 C          14.1840   43.5691    5.8460 C.ar    1  UNL1        0.0342
     22 C          15.4661   44.0450    6.1267 C.ar    1  UNL1        0.0001
     23 N          14.4960   41.8224    7.4425 N.ar    1  UNL1       -0.2293
     24 C          15.4583   35.7708    7.0661 C.3     1  UNL1        0.0899
     25 C          16.5944   34.8864    6.5632 C.3     1  UNL1        0.0359
     26 C          17.3941   35.5646    5.5002 C.ar    1  UNL1       -0.0215
     27 C          16.8278   35.8389    4.2486 C.ar    1  UNL1       -0.0019
     28 C          17.5883   36.4687    3.2589 C.ar    1  UNL1        0.0293
     29 C          18.9161   36.8232    3.5172 C.ar    1  UNL1        0.1401
     30 C          19.4847   36.5449    4.7640 C.ar    1  UNL1        0.0293
     31 C          18.7248   35.9147    5.7540 C.ar    1  UNL1       -0.0019
     32 F          19.6525   37.4336    2.5581 F       1  UNL1       -0.2042
@<TRIPOS>BOND
     1    17    18    1
     2    19    23   ar
     3    20    21   ar
     4    20    15    1
     5    22    18   ar
     6     9    14   ar
     7    10    13   ar
     8    11    12   ar
     9     1    12    1
    10     1     2    1
    11     2     3    1
    12     3     4    1
    13     4     7    1
    14     5     7    1
    15     5     1    1
    16    24     6    1
    17    24    25    1
    18    25    26    1
    19    27    28   ar
    20    29    30   ar
    21    29    32    1
    22    31    26   ar
    23    15     9    1
    24     7     6   am
    25    18    19   ar
    26    20    23   ar
    27    21    22   ar
    28     9    13   ar
    29    10    11   ar
    30    12    14   ar
    31     6     8    2
    32    26    27   ar
    33    28    29   ar
    34    30    31   ar
    35    15    16    1
@<TRIPOS>MOLECULE
MolPort-020-295-380 MCULE-6693225507 PubChem-110267461
 32 35 0 0 0
SMALL
GASTEIGER

@<TRIPOS>ATOM
      1 C           8.4665   40.7312    8.1629 C.3     1  UNL1        0.0603
      2 C           7.0482   41.1121    7.7297 C.3     1  UNL1        0.0094
      3 C           6.1220   41.1829    8.9426 C.3     1  UNL1        0.0219
      4 C           6.6630   42.1851    9.9588 C.3     1  UNL1        0.0934
      5 C           9.0000   41.7250    9.1945 C.3     1  UNL1        0.0992
      6 C           8.4214   41.5572   11.6456 C.2     1  UNL1        0.2260
      7 N           8.0430   41.8423   10.2906 N.am    1  UNL1       -0.2791
      8 O           7.5736   41.6557   12.5729 O.2     1  UNL1       -0.2749
      9 C          11.3041   41.4286    5.8491 C.ar    1  UNL1        0.2214
     10 C          10.0571   39.6520    4.9040 C.ar    1  UNL1        0.1031
     11 C           9.1682   39.6906    5.9759 C.ar    1  UNL1        0.0356
     12 C           9.3854   40.6322    6.9877 C.ar    1  UNL1        0.0647
     13 N          11.1036   40.5163    4.8591 N.ar    1  UNL1       -0.2120
     14 N          10.4451   41.4785    6.9013 N.ar    1  UNL1       -0.2179
     15 N          12.4059   42.3432    5.8030 N.pl3   1  UNL1       -0.2680
     16 H          12.3297   43.0992    5.1770 H       1  UNL1        0.1565
     17 C          17.1747   42.0159    8.8991 C.3     1  UNL1        0.0327
     18 C          15.9264   42.0943    8.0968 C.ar    1  UNL1       -0.0026
     19 C          15.8044   43.0352    7.0731 C.ar    1  UNL1        0.0960
     20 C          13.6077   42.2651    6.5790 C.ar    1  UNL1        0.1343
     21 C          13.6975   41.3117    7.5970 C.ar    1  UNL1        0.0342
     22 C          14.8645   41.2282    8.3587 C.ar    1  UNL1        0.0001
     23 N          14.6586   43.1006    6.3429 N.ar    1  UNL1       -0.2293
     24 C           9.8093   41.1087   11.9834 C.3     1  UNL1        0.0899
     25 C          10.7366   41.2405   10.7799 C.3     1  UNL1        0.0359
     26 C          11.6175   40.0446   10.6271 C.ar    1  UNL1       -0.0215
     27 C          12.8914   40.0191   11.2093 C.ar    1  UNL1       -0.0019
     28 C          13.7098   38.8963   11.0541 C.ar    1  UNL1        0.0293
     29 C          13.2579   37.7986   10.3151 C.ar    1  UNL1        0.1401
     30 C          11.9889   37.8247    9.7284 C.ar    1  UNL1        0.0293
     31 C          11.1702   38.9474    9.8828 C.ar    1  UNL1       -0.0019
     32 F          14.0510   36.7108   10.1652 F       1  UNL1       -0.2042
@<TRIPOS>BOND
     1    17    18    1
     2    19    23   ar
     3    20    21   ar
     4    20    15    1
     5    22    18   ar
     6     9    14   ar
     7    10    13   ar
     8    11    12   ar
     9     1    12    1
    10     1     2    1
    11     2     3    1
    12     3     4    1
    13     4     7    1
    14     5     7    1
    15     5     1    1
    16    24     6    1
    17    24    25    1
    18    25    26    1
    19    27    28   ar
    20    29    30   ar
    21    29    32    1
    22    31    26   ar
    23    15     9    1
    24     7     6   am
    25    18    19   ar
    26    20    23   ar
    27    21    22   ar
    28     9    13   ar
    29    10    11   ar
    30    12    14   ar
    31     6     8    2
    32    26    27   ar
    33    28    29   ar
    34    30    31   ar
    35    15    16    1
@<TRIPOS>MOLECULE
MolPort-020-295-380 MCULE-6693225507 PubChem-110267461
 32 35 0 0 0
SMALL
GASTEIGER

@<TRIPOS>ATOM
      1 C          13.7730   42.9236    7.0490 C.3     1  UNL1        0.0603
      2 C          13.6405   43.7731    5.7821 C.3     1  UNL1        0.0094
      3 C          14.7699   44.7992    5.7085 C.3     1  UNL1        0.0219
      4 C          16.1233   44.0943    5.7461 C.3     1  UNL1        0.0934
      5 C          15.1359   42.2331    7.0947 C.3     1  UNL1        0.0992
      6 C          17.2129   43.4134    7.9096 C.2     1  UNL1        0.2260
      7 N          16.1876   43.2307    6.9217 N.am    1  UNL1       -0.2791
      8 O          18.1039   44.2887    7.7417 O.2     1  UNL1       -0.2749
      9 C          11.7491   40.0248    8.2293 C.ar    1  UNL1        0.2214
     10 C          10.5627   41.0172    6.4371 C.ar    1  UNL1        0.1031
     11 C          11.5617   41.9771    6.2922 C.ar    1  UNL1        0.0356
     12 C          12.6629   41.9276    7.1539 C.ar    1  UNL1        0.0647
     13 N          10.6726   40.0632    7.3973 N.ar    1  UNL1       -0.2120
     14 N          12.7321   40.9545    8.1000 N.ar    1  UNL1       -0.2179
     15 N          11.8687   39.0181    9.2416 N.pl3   1  UNL1       -0.2680
     16 H          11.3494   39.1540   10.0668 H       1  UNL1        0.1565
     17 C          15.0420   34.2966    8.9724 C.3     1  UNL1        0.0327
     18 C          14.2084   35.5244    9.0495 C.ar    1  UNL1       -0.0026
     19 C          14.5339   36.6463    8.2856 C.ar    1  UNL1        0.0960
     20 C          12.6704   37.8328    9.1702 C.ar    1  UNL1        0.1343
     21 C          12.3173   36.7268    9.9483 C.ar    1  UNL1        0.0342
     22 C          13.0926   35.5674    9.8858 C.ar    1  UNL1        0.0001
     23 N          13.7658   37.7664    8.3615 N.ar    1  UNL1       -0.2293
     24 C          17.2305   42.5997    9.1662 C.3     1  UNL1        0.0899
     25 C          17.7876   41.2038    8.9083 C.3     1  UNL1        0.0359
     26 C          17.1157   40.1748    9.7563 C.ar    1  UNL1       -0.0215
     27 C          15.7525   40.2819   10.0606 C.ar    1  UNL1       -0.0019
     28 C          15.1356   39.3157   10.8608 C.ar    1  UNL1        0.0293
     29 C          15.8800   38.2425   11.3602 C.ar    1  UNL1        0.1401
     30 C          17.2423   38.1372   11.0624 C.ar    1  UNL1        0.0293
     31 C          17.8598   39.1034   10.2625 C.ar    1  UNL1       -0.0019
     32 F          15.2820   37.3064   12.1353 F       1  UNL1       -0.2042
@<TRIPOS>BOND
     1    17    18    1
     2    19    23   ar
     3    20    21   ar
     4    20    15    1
     5    22    18   ar
     6     9    14   ar
     7    10    13   ar
     8    11    12   ar
     9     1    12    1
    10     1     2    1
    11     2     3    1
    12     3     4    1
    13     4     7    1
    14     5     7    1
    15     5     1    1
    16    24     6    1
    17    24    25    1
    18    25    26    1
    19    27    28   ar
    20    29    30   ar
    21    29    32    1
    22    31    26   ar
    23    15     9    1
    24     7     6   am
    25    18    19   ar
    26    20    23   ar
    27    21    22   ar
    28     9    13   ar
    29    10    11   ar
    30    12    14   ar
    31     6     8    2
    32    26    27   ar
    33    28    29   ar
    34    30    31   ar
    35    15    16    1
@<TRIPOS>MOLECULE
MolPort-020-295-380 MCULE-6693225507 PubChem-110267461
 32 35 0 0 0
SMALL
GASTEIGER

@<TRIPOS>ATOM
      1 C          13.7744   42.9642    6.9238 C.3     1  UNL1        0.0603
      2 C          13.7326   43.8205    5.6553 C.3     1  UNL1        0.0094
      3 C          14.8878   44.8202    5.6493 C.3     1  UNL1        0.0219
      4 C          16.2203   44.0839    5.7593 C.3     1  UNL1        0.0934
      5 C          15.1163   42.2420    7.0424 C.3     1  UNL1        0.0992
      6 C          17.1712   43.3710    7.9772 C.2     1  UNL1        0.2260
      7 N          16.1988   43.2153    6.9329 N.am    1  UNL1       -0.2791
      8 O          18.0902   44.2258    7.8632 O.2     1  UNL1       -0.2749
      9 C          10.3631   41.5255    6.4933 C.ar    1  UNL1        0.2214
     10 C          11.6989   39.8553    7.5084 C.ar    1  UNL1        0.1031
     11 C          12.7981   40.7109    7.4963 C.ar    1  UNL1        0.0356
     12 C          12.6374   41.9940    6.9622 C.ar    1  UNL1        0.0647
     13 N          10.5073   40.2745    7.0097 N.ar    1  UNL1       -0.2120
     14 N          11.4265   42.3719    6.4749 N.ar    1  UNL1       -0.2179
     15 N           9.1066   41.9712    5.9688 N.pl3   1  UNL1       -0.2680
     16 H           9.0223   42.0077    4.9886 H       1  UNL1        0.1565
     17 C           4.5477   43.5682    8.9856 C.3     1  UNL1        0.0327
     18 C           5.7358   43.1590    8.1923 C.ar    1  UNL1       -0.0026
     19 C           6.5152   42.0747    8.5987 C.ar    1  UNL1        0.0960
     20 C           7.9608   42.3689    6.7314 C.ar    1  UNL1        0.1343
     21 C           7.2016   43.4591    6.2973 C.ar    1  UNL1        0.0342
     22 C           6.0835   43.8543    7.0339 C.ar    1  UNL1        0.0001
     23 N           7.6011   41.7061    7.8671 N.ar    1  UNL1       -0.2293
     24 C          17.0997   42.5532    9.2292 C.3     1  UNL1        0.0899
     25 C          17.5882   41.1296    8.9835 C.3     1  UNL1        0.0359
     26 C          16.8384   40.1373    9.8097 C.ar    1  UNL1       -0.0215
     27 C          15.4379   40.1098    9.7932 C.ar    1  UNL1       -0.0019
     28 C          14.7466   39.1803   10.5759 C.ar    1  UNL1        0.0293
     29 C          15.4531   38.2787   11.3779 C.ar    1  UNL1        0.1401
     30 C          16.8509   38.3086   11.4001 C.ar    1  UNL1        0.0293
     31 C          17.5428   39.2383   10.6179 C.ar    1  UNL1       -0.0019
     32 F          14.7829   37.3781   12.1359 F       1  UNL1       -0.2042
@<TRIPOS>BOND
     1    17    18    1
     2    19    23   ar
     3    20    21   ar
     4    20    15    1
     5    22    18   ar
     6     9    14   ar
     7    10    13   ar
     8    11    12   ar
     9     1    12    1
    10     1     2    1
    11     2     3    1
    12     3     4    1
    13     4     7    1
    14     5     7    1
    15     5     1    1
    16    24     6    1
    17    24    25    1
    18    25    26    1
    19    27    28   ar
    20    29    30   ar
    21    29    32    1
    22    31    26   ar
    23    15     9    1
    24     7     6   am
    25    18    19   ar
    26    20    23   ar
    27    21    22   ar
    28     9    13   ar
    29    10    11   ar
    30    12    14   ar
    31     6     8    2
    32    26    27   ar
    33    28    29   ar
    34    30    31   ar
    35    15    16    1
@<TRIPOS>MOLECULE
MolPort-020-295-380 MCULE-6693225507 PubChem-110267461
 32 35 0 0 0
SMALL
GASTEIGER

@<TRIPOS>ATOM
      1 C           9.2537   41.7670   10.6192 C.3     1  UNL1        0.0603
      2 C           8.6206   41.1493   11.8690 C.3     1  UNL1        0.0094
      3 C           7.2438   41.7598   12.1255 C.3     1  UNL1        0.0219
      4 C           6.3444   41.5571   10.9091 C.3     1  UNL1        0.0934
      5 C           8.3435   41.5797    9.4055 C.3     1  UNL1        0.0992
      6 C           6.3979   43.1175    8.9358 C.2     1  UNL1        0.2260
      7 N           7.0101   42.0834    9.7208 N.am    1  UNL1       -0.2791
      8 O           5.2498   43.5427    9.2349 O.2     1  UNL1       -0.2749
      9 C          12.4179   40.8758    8.8625 C.ar    1  UNL1        0.2214
     10 C          12.5621   39.9827   11.0502 C.ar    1  UNL1        0.1031
     11 C          11.3006   40.4900   11.3528 C.ar    1  UNL1        0.0356
     12 C          10.6136   41.2009   10.3627 C.ar    1  UNL1        0.0647
     13 N          13.0962   40.1831    9.8178 N.ar    1  UNL1       -0.2120
     14 N          11.1857   41.3765    9.1427 N.ar    1  UNL1       -0.2179
     15 N          12.9779   41.0865    7.5608 N.pl3   1  UNL1       -0.2680
     16 H          12.5519   40.6104    6.8116 H       1  UNL1        0.1565
     17 C          17.4391   44.3991    6.3123 C.3     1  UNL1        0.0327
     18 C          16.2801   43.5308    6.6455 C.ar    1  UNL1       -0.0026
     19 C          15.0891   43.6381    5.9256 C.ar    1  UNL1        0.0960
     20 C          14.0972   41.9223    7.2427 C.ar    1  UNL1        0.1343
     21 C          15.2752   41.7898    7.9831 C.ar    1  UNL1        0.0342
     22 C          16.3711   42.6000    7.6808 C.ar    1  UNL1        0.0001
     23 N          14.0326   42.8397    6.2364 N.ar    1  UNL1       -0.2293
     24 C           7.1138   43.7335    7.7740 C.3     1  UNL1        0.0899
     25 C           6.6896   43.0838    6.4611 C.3     1  UNL1        0.0359
     26 C           7.4145   41.8010    6.2194 C.ar    1  UNL1       -0.0215
     27 C           6.7295   40.5793    6.2485 C.ar    1  UNL1       -0.0019
     28 C           7.4200   39.3841    6.0270 C.ar    1  UNL1        0.0293
     29 C           8.7959   39.4072    5.7785 C.ar    1  UNL1        0.1401
     30 C           9.4823   40.6253    5.7550 C.ar    1  UNL1        0.0293
     31 C           8.7924   41.8210    5.9770 C.ar    1  UNL1       -0.0019
     32 F           9.4645   38.2490    5.5637 F       1  UNL1       -0.2042
@<TRIPOS>BOND
     1    17    18    1
     2    19    23   ar
     3    20    21   ar
     4    20    15    1
     5    22    18   ar
     6     9    14   ar
     7    10    13   ar
     8    11    12   ar
     9     1    12    1
    10     1     2    1
    11     2     3    1
    12     3     4    1
    13     4     7    1
    14     5     7    1
    15     5     1    1
    16    24     6    1
    17    24    25    1
    18    25    26    1
    19    27    28   ar
    20    29    30   ar
    21    29    32    1
    22    31    26   ar
    23    15     9    1
    24     7     6   am
    25    18    19   ar
    26    20    23   ar
    27    21    22   ar
    28     9    13   ar
    29    10    11   ar
    30    12    14   ar
    31     6     8    2
    32    26    27   ar
    33    28    29   ar
    34    30    31   ar
    35    15    16    1
@<TRIPOS>MOLECULE
MolPort-020-295-380 MCULE-6693225507 PubChem-110267461
 32 35 0 0 0
SMALL
GASTEIGER

@<TRIPOS>ATOM
      1 C          13.8657   43.2354    7.0549 C.3     1  UNL1        0.0603
      2 C          13.8017   44.0401    5.7540 C.3     1  UNL1        0.0094
      3 C          15.0272   44.9432    5.6258 C.3     1  UNL1        0.0219
      4 C          16.3035   44.1079    5.6810 C.3     1  UNL1        0.0934
      5 C          15.1530   42.4136    7.1175 C.3     1  UNL1        0.0992
      6 C          17.3488   43.4117    7.8614 C.2     1  UNL1        0.2260
      7 N          16.2970   43.2921    6.8920 N.am    1  UNL1       -0.2791
      8 O          18.3206   44.1851    7.6478 O.2     1  UNL1       -0.2749
      9 C          11.0053   41.4412    8.6333 C.ar    1  UNL1        0.2214
     10 C          10.9996   40.8726    6.3353 C.ar    1  UNL1        0.1031
     11 C          12.1177   41.6757    6.1221 C.ar    1  UNL1        0.0356
     12 C          12.6629   42.3615    7.2129 C.ar    1  UNL1        0.0647
     13 N          10.4655   40.7697    7.5796 N.ar    1  UNL1       -0.2120
     14 N          12.0965   42.2284    8.4410 N.ar    1  UNL1       -0.2179
     15 N          10.4454   41.3325    9.9475 N.pl3   1  UNL1       -0.2680
     16 H          11.0775   41.1943   10.6896 H       1  UNL1        0.1565
     17 C           4.9256   41.6211   11.3201 C.3     1  UNL1        0.0327
     18 C           6.3681   41.5447   10.9714 C.ar    1  UNL1       -0.0026
     19 C           6.7733   41.5789    9.6361 C.ar    1  UNL1        0.0960
     20 C           9.0555   41.4053   10.2874 C.ar    1  UNL1        0.1343
     21 C           8.6832   41.3684   11.6341 C.ar    1  UNL1        0.0342
     22 C           7.3313   41.4384   11.9751 C.ar    1  UNL1        0.0001
     23 N           8.0956   41.5088    9.3250 N.ar    1  UNL1       -0.2293
     24 C          17.3018   42.6537    9.1516 C.3     1  UNL1        0.0899
     25 C          17.5091   41.1609    8.9189 C.3     1  UNL1        0.0359
     26 C          16.5994   40.3371    9.7693 C.ar    1  UNL1       -0.0215
     27 C          17.1185   39.5073   10.7715 C.ar    1  UNL1       -0.0019
     28 C          16.2574   38.7357   11.5573 C.ar    1  UNL1        0.0293
     29 C          14.8769   38.7900   11.3417 C.ar    1  UNL1        0.1401
     30 C          14.3574   39.6133   10.3378 C.ar    1  UNL1        0.0293
     31 C          15.2182   40.3848    9.5512 C.ar    1  UNL1       -0.0019
     32 F          14.0428   38.0425   12.1034 F       1  UNL1       -0.2042
@<TRIPOS>BOND
     1    17    18    1
     2    19    23   ar
     3    20    21   ar
     4    20    15    1
     5    22    18   ar
     6     9    14   ar
     7    10    13   ar
     8    11    12   ar
     9     1    12    1
    10     1     2    1
    11     2     3    1
    12     3     4    1
    13     4     7    1
    14     5     7    1
    15     5     1    1
    16    24     6    1
    17    24    25    1
    18    25    26    1
    19    27    28   ar
    20    29    30   ar
    21    29    32    1
    22    31    26   ar
    23    15     9    1
    24     7     6   am
    25    18    19   ar
    26    20    23   ar
    27    21    22   ar
    28     9    13   ar
    29    10    11   ar
    30    12    14   ar
    31     6     8    2
    32    26    27   ar
    33    28    29   ar
    34    30    31   ar
    35    15    16    1
@<TRIPOS>MOLECULE
MolPort-020-295-380 MCULE-6693225507 PubChem-110267461
 32 35 0 0 0
SMALL
GASTEIGER

@<TRIPOS>ATOM
      1 C          12.2333   38.6191    9.1772 C.3     1  UNL1        0.0603
      2 C          11.5255   37.3271    9.5942 C.3     1  UNL1        0.0094
      3 C          12.5470   36.2738   10.0197 C.3     1  UNL1        0.0219
      4 C          13.4092   36.8087   11.1600 C.3     1  UNL1        0.0934
      5 C          13.1108   39.1436   10.3134 C.3     1  UNL1        0.0992
      6 C          15.4311   38.2471   10.7423 C.2     1  UNL1        0.2260
      7 N          14.0054   38.0806   10.7616 N.am    1  UNL1       -0.2791
      8 O          16.1823   37.3101   11.1246 O.2     1  UNL1       -0.2749
      9 C           9.4058   41.0464    9.2528 C.ar    1  UNL1        0.2214
     10 C          10.3317   41.1254    7.0755 C.ar    1  UNL1        0.1031
     11 C          11.2755   40.1640    7.4295 C.ar    1  UNL1        0.0356
     12 C          11.2528   39.6568    8.7333 C.ar    1  UNL1        0.0647
     13 N           9.4185   41.5478    7.9876 N.ar    1  UNL1       -0.2120
     14 N          10.3203   40.1075    9.6131 N.ar    1  UNL1       -0.2179
     15 N           8.4421   41.4884   10.2163 N.pl3   1  UNL1       -0.2680
     16 H           8.7933   41.8829   11.0471 H       1  UNL1        0.1565
     17 C           2.7755   41.1888    9.7314 C.3     1  UNL1        0.0327
     18 C           4.2532   41.2673    9.8676 C.ar    1  UNL1       -0.0026
     19 C           5.0694   41.2079    8.7369 C.ar    1  UNL1        0.0960
     20 C           7.0171   41.4125   10.0888 C.ar    1  UNL1        0.1343
     21 C           6.2283   41.4747   11.2409 C.ar    1  UNL1        0.0342
     22 C           4.8389   41.4013   11.1268 C.ar    1  UNL1        0.0001
     23 N           6.4212   41.2807    8.8698 N.ar    1  UNL1       -0.2293
     24 C          16.0556   39.5123   10.2418 C.3     1  UNL1        0.0899
     25 C          15.1446   40.2155    9.2412 C.3     1  UNL1        0.0359
     26 C          15.8249   41.3773    8.5955 C.ar    1  UNL1       -0.0215
     27 C          15.1464   42.1712    7.6618 C.ar    1  UNL1       -0.0019
     28 C          15.7957   43.2527    7.0591 C.ar    1  UNL1        0.0293
     29 C          17.1242   43.5412    7.3864 C.ar    1  UNL1        0.1401
     30 C          17.8048   42.7462    8.3138 C.ar    1  UNL1        0.0293
     31 C          17.1562   41.6642    8.9165 C.ar    1  UNL1       -0.0019
     32 F          17.7529   44.5893    6.8024 F       1  UNL1       -0.2042
@<TRIPOS>BOND
     1    17    18    1
     2    19    23   ar
     3    20    21   ar
     4    20    15    1
     5    22    18   ar
     6     9    14   ar
     7    10    13   ar
     8    11    12   ar
     9     1    12    1
    10     1     2    1
    11     2     3    1
    12     3     4    1
    13     4     7    1
    14     5     7    1
    15     5     1    1
    16    24     6    1
    17    24    25    1
    18    25    26    1
    19    27    28   ar
    20    29    30   ar
    21    29    32    1
    22    31    26   ar
    23    15     9    1
    24     7     6   am
    25    18    19   ar
    26    20    23   ar
    27    21    22   ar
    28     9    13   ar
    29    10    11   ar
    30    12    14   ar
    31     6     8    2
    32    26    27   ar
    33    28    29   ar
    34    30    31   ar
    35    15    16    1
@<TRIPOS>MOLECULE
MolPort-020-295-380 MCULE-6693225507 PubChem-110267461
 32 35 0 0 0
SMALL
GASTEIGER

@<TRIPOS>ATOM
      1 C           8.0814   41.2063    9.2960 C.3     1  UNL1        0.0603
      2 C           6.5774   41.4763    9.3910 C.3     1  UNL1        0.0094
      3 C           6.0729   41.1880   10.8039 C.3     1  UNL1        0.0219
      4 C           6.8378   42.0345   11.8178 C.3     1  UNL1        0.0934
      5 C           8.8447   42.0408   10.3244 C.3     1  UNL1        0.0992
      6 C           9.0711   41.3242   12.7341 C.2     1  UNL1        0.2260
      7 N           8.2716   41.8163   11.6482 N.am    1  UNL1       -0.2791
      8 O           8.5502   41.1287   13.8649 O.2     1  UNL1       -0.2749
      9 C          10.3848   41.3445    6.3689 C.ar    1  UNL1        0.2214
     10 C           8.3131   42.2497    5.6666 C.ar    1  UNL1        0.1031
     11 C           7.7765   42.0346    6.9339 C.ar    1  UNL1        0.0356
     12 C           8.5926   41.4591    7.9139 C.ar    1  UNL1        0.0647
     13 N           9.6003   41.9030    5.4071 N.ar    1  UNL1       -0.2120
     14 N           9.8753   41.1287    7.6104 N.ar    1  UNL1       -0.2179
     15 N          11.7437   40.9800    6.0986 N.pl3   1  UNL1       -0.2680
     16 H          11.8908   40.1183    5.6458 H       1  UNL1        0.1565
     17 C          16.3834   44.0143    7.4028 C.3     1  UNL1        0.0327
     18 C          15.1749   43.2163    7.0697 C.ar    1  UNL1       -0.0026
     19 C          14.3008   43.6451    6.0696 C.ar    1  UNL1        0.0960
     20 C          12.9094   41.7472    6.4229 C.ar    1  UNL1        0.1343
     21 C          13.7643   41.2900    7.4297 C.ar    1  UNL1        0.0342
     22 C          14.9025   42.0308    7.7530 C.ar    1  UNL1        0.0001
     23 N          13.1968   42.9090    5.7702 N.ar    1  UNL1       -0.2293
     24 C          10.5210   41.0031   12.5439 C.3     1  UNL1        0.0899
     25 C          10.9237   41.1311   11.0786 C.3     1  UNL1        0.0359
     26 C          11.7449   39.9686   10.6272 C.ar    1  UNL1       -0.0215
     27 C          11.1476   38.8895    9.9630 C.ar    1  UNL1       -0.0019
     28 C          11.9257   37.8037    9.5507 C.ar    1  UNL1        0.0293
     29 C          13.3009   37.7931    9.8034 C.ar    1  UNL1        0.1401
     30 C          13.8979   38.8668   10.4714 C.ar    1  UNL1        0.0293
     31 C          13.1202   39.9527   10.8845 C.ar    1  UNL1       -0.0019
     32 F          14.0545   36.7410    9.4035 F       1  UNL1       -0.2042
@<TRIPOS>BOND
     1    17    18    1
     2    19    23   ar
     3    20    21   ar
     4    20    15    1
     5    22    18   ar
     6     9    14   ar
     7    10    13   ar
     8    11    12   ar
     9     1    12    1
    10     1     2    1
    11     2     3    1
    12     3     4    1
    13     4     7    1
    14     5     7    1
    15     5     1    1
    16    24     6    1
    17    24    25    1
    18    25    26    1
    19    27    28   ar
    20    29    30   ar
    21    29    32    1
    22    31    26   ar
    23    15     9    1
    24     7     6   am
    25    18    19   ar
    26    20    23   ar
    27    21    22   ar
    28     9    13   ar
    29    10    11   ar
    30    12    14   ar
    31     6     8    2
    32    26    27   ar
    33    28    29   ar
    34    30    31   ar
    35    15    16    1
