@<TRIPOS>MOLECULE
Molport-020-279-146 MCULE-3336476174 MCULE-7297811487 PubChem-110255900
 27 29 0 0 0
SMALL
GASTEIGER

@<TRIPOS>ATOM
      1 C           8.9262   39.3828    5.7405 C.3     1  UNL1        0.0522
      2 C          10.1660   39.9861    6.2946 C.ar    1  UNL1        0.0635
      3 C          10.7114   41.1239    5.7043 C.ar    1  UNL1        0.0492
      4 C          11.8789   41.6703    6.2479 C.ar    1  UNL1        0.1358
      5 C          11.9034   39.9679    7.8974 C.ar    1  UNL1        0.1414
      6 N          12.4465   41.0784    7.3321 N.ar    1  UNL1       -0.2159
      7 N          10.7674   39.4288    7.3768 N.ar    1  UNL1       -0.2348
      8 C          12.5593   39.3533    9.0888 C.3     1  UNL1        0.0785
      9 C          12.4757   40.2901   10.2957 C.3     1  UNL1        0.0110
     10 C          13.1470   39.6533   11.5109 C.3     1  UNL1        0.0220
     11 C          14.6028   39.3274   11.1913 C.3     1  UNL1        0.0935
     12 C          14.0145   39.0037    8.7791 C.3     1  UNL1        0.1009
     13 C          15.3172   37.2251   10.0072 C.2     1  UNL1        0.2418
     14 N          14.6632   38.5024    9.9880 N.am    1  UNL1       -0.2780
     15 O          15.8734   36.8138   11.0606 O.2     1  UNL1       -0.2734
     16 C          15.3816   36.3769    8.7806 C.3     1  UNL1        0.1552
     17 C          13.5408   35.1872    9.5680 C.3     1  UNL1        0.0862
     18 N          14.9010   35.0410    9.0844 N.3     1  UNL1       -0.2886
     19 H          15.4851   34.6120    9.8021 H       1  UNL1        0.1237
     20 N          12.4978   42.8404    5.6944 N.pl3   1  UNL1       -0.2820
     21 H          11.9826   43.3228    5.0081 H       1  UNL1        0.1551
     22 C          13.7809   43.3874    6.0266 C.ar    1  UNL1        0.1526
     23 C          15.3863   45.1298    5.9052 C.ar    1  UNL1        0.1210
     24 C          16.2579   44.3832    6.6991 C.ar    1  UNL1        0.1196
     25 C          14.6560   42.6433    6.8208 C.ar    1  UNL1        0.1332
     26 N          14.1690   44.6164    5.5870 N.ar    1  UNL1       -0.2258
     27 N          15.8739   43.1563    7.1395 N.ar    1  UNL1       -0.2378
@<TRIPOS>BOND
     1     1     2    1
     2     2     7   ar
     3     3     4   ar
     4     4    20    1
     5     5     6   ar
     6     8     5    1
     7     8     9    1
     8     9    10    1
     9    10    11    1
    10    11    14    1
    11    12    14    1
    12    12     8    1
    13    16    13    1
    14    16    18    1
    15    17    18    1
    16    23    26   ar
    17    24    27   ar
    18    25    22   ar
    19    14    13   am
    20    20    22    1
    21     2     3   ar
    22     4     6   ar
    23     5     7   ar
    24    13    15    2
    25    22    26   ar
    26    23    24   ar
    27    25    27   ar
    28    18    19    1
    29    20    21    1
@<TRIPOS>MOLECULE
Molport-020-279-146 MCULE-3336476174 MCULE-7297811487 PubChem-110255900
 27 29 0 0 0
SMALL
GASTEIGER

@<TRIPOS>ATOM
      1 C           8.6882   40.7869    6.8385 C.3     1  UNL1        0.0522
      2 C          10.1681   40.7749    6.9716 C.ar    1  UNL1        0.0635
      3 C          10.9345   41.7361    6.3164 C.ar    1  UNL1        0.0492
      4 C          12.3256   41.7004    6.4605 C.ar    1  UNL1        0.1358
      5 C          12.1280   39.8010    7.8651 C.ar    1  UNL1        0.1414
      6 N          12.8885   40.7330    7.2321 N.ar    1  UNL1       -0.2159
      7 N          10.7738   39.8273    7.7321 N.ar    1  UNL1       -0.2348
      8 C          12.7890   38.7590    8.7045 C.3     1  UNL1        0.0785
      9 C          11.7569   37.7724    9.2544 C.3     1  UNL1        0.0110
     10 C          12.4412   36.7084   10.1102 C.3     1  UNL1        0.0220
     11 C          13.2047   37.3705   11.2533 C.3     1  UNL1        0.0935
     12 C          13.5740   39.4073    9.8445 C.3     1  UNL1        0.1009
     13 C          15.5275   38.3048   11.0009 C.2     1  UNL1        0.2418
     14 N          14.1233   38.3675   10.7108 N.am    1  UNL1       -0.2780
     15 O          15.9792   37.4009   11.7537 O.2     1  UNL1       -0.2734
     16 C          16.4716   39.3207   10.4488 C.3     1  UNL1        0.1552
     17 C          18.7737   38.9754   10.5223 C.3     1  UNL1        0.0862
     18 N          17.5713   38.6518    9.7772 N.3     1  UNL1       -0.2886
     19 H          17.6522   38.9859    8.8169 H       1  UNL1        0.1237
     20 N          13.1795   42.6569    5.8167 N.pl3   1  UNL1       -0.2820
     21 H          12.8541   43.0280    4.9649 H       1  UNL1        0.1551
     22 C          14.4527   43.1340    6.2720 C.ar    1  UNL1        0.1526
     23 C          16.3659   42.9343    7.6604 C.ar    1  UNL1        0.1210
     24 C          16.8928   44.1004    7.1037 C.ar    1  UNL1        0.1196
     25 C          14.9833   44.3006    5.7172 C.ar    1  UNL1        0.1332
     26 N          15.1596   42.4775    7.2330 N.ar    1  UNL1       -0.2258
     27 N          16.1900   44.7582    6.1444 N.ar    1  UNL1       -0.2378
@<TRIPOS>BOND
     1     1     2    1
     2     2     7   ar
     3     3     4   ar
     4     4    20    1
     5     5     6   ar
     6     8     5    1
     7     8     9    1
     8     9    10    1
     9    10    11    1
    10    11    14    1
    11    12    14    1
    12    12     8    1
    13    16    13    1
    14    16    18    1
    15    17    18    1
    16    23    26   ar
    17    24    27   ar
    18    25    22   ar
    19    14    13   am
    20    20    22    1
    21     2     3   ar
    22     4     6   ar
    23     5     7   ar
    24    13    15    2
    25    22    26   ar
    26    23    24   ar
    27    25    27   ar
    28    18    19    1
    29    20    21    1
@<TRIPOS>MOLECULE
Molport-020-279-146 MCULE-3336476174 MCULE-7297811487 PubChem-110255900
 27 29 0 0 0
SMALL
GASTEIGER

@<TRIPOS>ATOM
      1 C          13.8269   39.1503   11.7384 C.3     1  UNL1        0.0522
      2 C          13.2598   39.9873   10.6494 C.ar    1  UNL1        0.0635
      3 C          14.0159   40.2547    9.5103 C.ar    1  UNL1        0.0492
      4 C          13.4559   41.0453    8.5011 C.ar    1  UNL1        0.1358
      5 C          11.4693   41.2602    9.7766 C.ar    1  UNL1        0.1414
      6 N          12.1952   41.5288    8.6592 N.ar    1  UNL1       -0.2159
      7 N          12.0045   40.4916   10.7640 N.ar    1  UNL1       -0.2348
      8 C          10.0878   41.8099    9.9060 C.3     1  UNL1        0.0785
      9 C           9.6062   41.7268   11.3559 C.3     1  UNL1        0.0110
     10 C           8.1930   42.2929   11.4803 C.3     1  UNL1        0.0220
     11 C           7.2434   41.5313   10.5606 C.3     1  UNL1        0.0935
     12 C           9.1267   41.0692    8.9767 C.3     1  UNL1        0.1009
     13 C           6.9716   42.0606    8.1156 C.2     1  UNL1        0.2418
     14 N           7.7661   41.5523    9.1974 N.am    1  UNL1       -0.2780
     15 O           5.7987   42.4692    8.3284 O.2     1  UNL1       -0.2734
     16 C           7.5006   42.0853    6.7200 C.3     1  UNL1        0.1552
     17 C           6.7531   39.9321    6.2415 C.3     1  UNL1        0.0862
     18 N           6.6221   41.3234    5.8508 N.3     1  UNL1       -0.2886
     19 H           6.9011   41.4429    4.8770 H       1  UNL1        0.1237
     20 N          14.1736   41.3625    7.3000 N.pl3   1  UNL1       -0.2820
     21 H          14.4311   40.6008    6.7319 H       1  UNL1        0.1551
     22 C          14.5589   42.6622    6.8324 C.ar    1  UNL1        0.1526
     23 C          16.1063   44.4580    6.7407 C.ar    1  UNL1        0.1210
     24 C          15.2418   45.1612    5.9008 C.ar    1  UNL1        0.1196
     25 C          13.6964   43.3690    5.9916 C.ar    1  UNL1        0.1332
     26 N          15.7465   43.2260    7.1873 N.ar    1  UNL1       -0.2258
     27 N          14.0557   44.6015    5.5446 N.ar    1  UNL1       -0.2378
@<TRIPOS>BOND
     1     1     2    1
     2     2     7   ar
     3     3     4   ar
     4     4    20    1
     5     5     6   ar
     6     8     5    1
     7     8     9    1
     8     9    10    1
     9    10    11    1
    10    11    14    1
    11    12    14    1
    12    12     8    1
    13    16    13    1
    14    16    18    1
    15    17    18    1
    16    23    26   ar
    17    24    27   ar
    18    25    22   ar
    19    14    13   am
    20    20    22    1
    21     2     3   ar
    22     4     6   ar
    23     5     7   ar
    24    13    15    2
    25    22    26   ar
    26    23    24   ar
    27    25    27   ar
    28    18    19    1
    29    20    21    1
@<TRIPOS>MOLECULE
Molport-020-279-146 MCULE-3336476174 MCULE-7297811487 PubChem-110255900
 27 29 0 0 0
SMALL
GASTEIGER

@<TRIPOS>ATOM
      1 C          13.8640   39.0395   11.6018 C.3     1  UNL1        0.0522
      2 C          13.3413   39.9774   10.5746 C.ar    1  UNL1        0.0635
      3 C          14.1478   40.3592    9.5049 C.ar    1  UNL1        0.0492
      4 C          13.6288   41.2432    8.5527 C.ar    1  UNL1        0.1358
      5 C          11.5824   41.3224    9.7468 C.ar    1  UNL1        0.1414
      6 N          12.3577   41.7032    8.6972 N.ar    1  UNL1       -0.2159
      7 N          12.0775   40.4624   10.6781 N.ar    1  UNL1       -0.2348
      8 C          10.1915   41.8505    9.8634 C.3     1  UNL1        0.0785
      9 C           9.7326   41.8481   11.3230 C.3     1  UNL1        0.0110
     10 C           8.3095   42.3917   11.4342 C.3     1  UNL1        0.0220
     11 C           7.3633   41.5549   10.5785 C.3     1  UNL1        0.0935
     12 C           9.2333   41.0337    8.9970 C.3     1  UNL1        0.1009
     13 C           7.0453   41.9250    8.1100 C.2     1  UNL1        0.2418
     14 N           7.8659   41.5016    9.2086 N.am    1  UNL1       -0.2780
     15 O           5.8670   42.3218    8.3153 O.2     1  UNL1       -0.2734
     16 C           7.5535   41.8735    6.7074 C.3     1  UNL1        0.1552
     17 C           6.7480   39.7481    6.1998 C.3     1  UNL1        0.0862
     18 N           6.6091   41.1546    5.8714 N.3     1  UNL1       -0.2886
     19 H           6.8237   41.3085    4.8861 H       1  UNL1        0.1237
     20 N          14.3995   41.6806    7.4244 N.pl3   1  UNL1       -0.2820
     21 H          14.0853   41.3831    6.5401 H       1  UNL1        0.1551
     22 C          15.5751   42.5016    7.4374 C.ar    1  UNL1        0.1526
     23 C          16.8234   44.3482    6.6253 C.ar    1  UNL1        0.1210
     24 C          17.8571   44.0399    7.5105 C.ar    1  UNL1        0.1196
     25 C          16.6117   42.1963    8.3219 C.ar    1  UNL1        0.1332
     26 N          15.7069   43.5736    6.6082 N.ar    1  UNL1       -0.2258
     27 N          17.7289   42.9707    8.3394 N.ar    1  UNL1       -0.2378
@<TRIPOS>BOND
     1     1     2    1
     2     2     7   ar
     3     3     4   ar
     4     4    20    1
     5     5     6   ar
     6     8     5    1
     7     8     9    1
     8     9    10    1
     9    10    11    1
    10    11    14    1
    11    12    14    1
    12    12     8    1
    13    16    13    1
    14    16    18    1
    15    17    18    1
    16    23    26   ar
    17    24    27   ar
    18    25    22   ar
    19    14    13   am
    20    20    22    1
    21     2     3   ar
    22     4     6   ar
    23     5     7   ar
    24    13    15    2
    25    22    26   ar
    26    23    24   ar
    27    25    27   ar
    28    18    19    1
    29    20    21    1
@<TRIPOS>MOLECULE
Molport-020-279-146 MCULE-3336476174 MCULE-7297811487 PubChem-110255900
 27 29 0 0 0
SMALL
GASTEIGER

@<TRIPOS>ATOM
      1 C          14.9278   43.8906    5.5314 C.3     1  UNL1        0.0522
      2 C          14.2545   42.8708    6.3769 C.ar    1  UNL1        0.0635
      3 C          12.9169   42.5528    6.1527 C.ar    1  UNL1        0.0492
      4 C          12.3093   41.5885    6.9640 C.ar    1  UNL1        0.1358
      5 C          14.3420   41.3121    8.1519 C.ar    1  UNL1        0.1414
      6 N          13.0375   40.9913    7.9443 N.ar    1  UNL1       -0.2159
      7 N          14.9428   42.2484    7.3679 N.ar    1  UNL1       -0.2348
      8 C          15.1037   40.6286    9.2382 C.3     1  UNL1        0.0785
      9 C          16.6073   40.8568    9.0707 C.3     1  UNL1        0.0110
     10 C          17.3793   40.1562   10.1870 C.3     1  UNL1        0.0220
     11 C          17.0647   38.6633   10.1811 C.3     1  UNL1        0.0935
     12 C          14.7853   39.1339    9.2577 C.3     1  UNL1        0.1009
     13 C          15.0395   37.6767   11.3023 C.2     1  UNL1        0.2418
     14 N          15.6191   38.4711   10.2571 N.am    1  UNL1       -0.2780
     15 O          15.7783   37.1110   12.1521 O.2     1  UNL1       -0.2734
     16 C          13.5625   37.4770   11.3857 C.3     1  UNL1        0.1552
     17 C          12.1530   35.9025   10.4068 C.3     1  UNL1        0.0862
     18 N          13.2574   36.0585   11.3350 N.3     1  UNL1       -0.2886
     19 H          12.9891   35.7233   12.2602 H       1  UNL1        0.1237
     20 N          10.9363   41.2090    6.7925 N.pl3   1  UNL1       -0.2820
     21 H          10.3064   41.5302    7.4775 H       1  UNL1        0.1551
     22 C          10.3767   40.4154    5.7374 C.ar    1  UNL1        0.1526
     23 C          10.5241   39.4238    3.5873 C.ar    1  UNL1        0.1210
     24 C           9.2481   38.8825    3.7485 C.ar    1  UNL1        0.1196
     25 C           9.1000   39.8719    5.8950 C.ar    1  UNL1        0.1332
     26 N          11.0595   40.1770    4.5837 N.ar    1  UNL1       -0.2258
     27 N           8.5638   39.1184    4.8986 N.ar    1  UNL1       -0.2378
@<TRIPOS>BOND
     1     1     2    1
     2     2     7   ar
     3     3     4   ar
     4     4    20    1
     5     5     6   ar
     6     8     5    1
     7     8     9    1
     8     9    10    1
     9    10    11    1
    10    11    14    1
    11    12    14    1
    12    12     8    1
    13    16    13    1
    14    16    18    1
    15    17    18    1
    16    23    26   ar
    17    24    27   ar
    18    25    22   ar
    19    14    13   am
    20    20    22    1
    21     2     3   ar
    22     4     6   ar
    23     5     7   ar
    24    13    15    2
    25    22    26   ar
    26    23    24   ar
    27    25    27   ar
    28    18    19    1
    29    20    21    1
@<TRIPOS>MOLECULE
Molport-020-279-146 MCULE-3336476174 MCULE-7297811487 PubChem-110255900
 27 29 0 0 0
SMALL
GASTEIGER

@<TRIPOS>ATOM
      1 C          10.9495   40.7795   11.2725 C.3     1  UNL1        0.0522
      2 C          10.6201   41.2217    9.8926 C.ar    1  UNL1        0.0635
      3 C          11.6225   41.3011    8.9285 C.ar    1  UNL1        0.0492
      4 C          11.2829   41.7201    7.6376 C.ar    1  UNL1        0.1358
      5 C           9.0226   41.9554    8.3123 C.ar    1  UNL1        0.1414
      6 N           9.9901   42.0371    7.3611 N.ar    1  UNL1       -0.2159
      7 N           9.3422   41.5483    9.5710 N.ar    1  UNL1       -0.2348
      8 C           7.6158   42.3106    7.9628 C.3     1  UNL1        0.0785
      9 C           7.5838   43.3988    6.8877 C.3     1  UNL1        0.0110
     10 C           6.1412   43.7550    6.5342 C.3     1  UNL1        0.0220
     11 C           5.3979   44.2200    7.7829 C.3     1  UNL1        0.0935
     12 C           6.8515   42.7613    9.2073 C.3     1  UNL1        0.1009
     13 C           4.3407   42.6362    9.4278 C.2     1  UNL1        0.2418
     14 N           5.5130   43.2025    8.8239 N.am    1  UNL1       -0.2780
     15 O           3.1955   43.0343    9.0841 O.2     1  UNL1       -0.2734
     16 C           4.4517   41.5953   10.4920 C.3     1  UNL1        0.1552
     17 C           2.8010   41.9666   12.0924 C.3     1  UNL1        0.0862
     18 N           4.2018   42.1951   11.7903 N.3     1  UNL1       -0.2886
     19 H           4.3958   43.1959   11.7584 H       1  UNL1        0.1237
     20 N          12.2605   41.8259    6.5929 N.pl3   1  UNL1       -0.2820
     21 H          12.1025   41.2774    5.7907 H       1  UNL1        0.1551
     22 C          13.4415   42.6392    6.5834 C.ar    1  UNL1        0.1526
     23 C          14.5905   44.6190    5.9603 C.ar    1  UNL1        0.1210
     24 C          15.7400   44.1545    6.6008 C.ar    1  UNL1        0.1196
     25 C          14.5938   42.1778    7.2233 C.ar    1  UNL1        0.1332
     26 N          13.4684   43.8525    5.9657 N.ar    1  UNL1       -0.2258
     27 N          15.7167   42.9441    7.2182 N.ar    1  UNL1       -0.2378
@<TRIPOS>BOND
     1     1     2    1
     2     2     7   ar
     3     3     4   ar
     4     4    20    1
     5     5     6   ar
     6     8     5    1
     7     8     9    1
     8     9    10    1
     9    10    11    1
    10    11    14    1
    11    12    14    1
    12    12     8    1
    13    16    13    1
    14    16    18    1
    15    17    18    1
    16    23    26   ar
    17    24    27   ar
    18    25    22   ar
    19    14    13   am
    20    20    22    1
    21     2     3   ar
    22     4     6   ar
    23     5     7   ar
    24    13    15    2
    25    22    26   ar
    26    23    24   ar
    27    25    27   ar
    28    18    19    1
    29    20    21    1
@<TRIPOS>MOLECULE
Molport-020-279-146 MCULE-3336476174 MCULE-7297811487 PubChem-110255900
 27 29 0 0 0
SMALL
GASTEIGER

@<TRIPOS>ATOM
      1 C          15.0152   44.6287    5.6669 C.3     1  UNL1        0.0522
      2 C          14.5053   43.4624    6.4337 C.ar    1  UNL1        0.0635
      3 C          15.3776   42.7051    7.2123 C.ar    1  UNL1        0.0492
      4 C          14.8693   41.6131    7.9238 C.ar    1  UNL1        0.1358
      5 C          12.7048   42.0698    7.0715 C.ar    1  UNL1        0.1414
      6 N          13.5442   41.3222    7.8359 N.ar    1  UNL1       -0.2159
      7 N          13.1891   43.1347    6.3760 N.ar    1  UNL1       -0.2348
      8 C          11.2566   41.7152    7.0071 C.3     1  UNL1        0.0785
      9 C          10.6279   41.7528    8.4016 C.3     1  UNL1        0.0110
     10 C           9.1459   41.3910    8.3269 C.3     1  UNL1        0.0220
     11 C           8.9775   40.0078    7.7054 C.3     1  UNL1        0.0935
     12 C          11.0693   40.3388    6.3696 C.3     1  UNL1        0.1009
     13 C           8.9445   39.6071    5.2214 C.2     1  UNL1        0.2418
     14 N           9.6568   39.9697    6.4134 N.am    1  UNL1       -0.2780
     15 O           7.7268   39.2888    5.2830 O.2     1  UNL1       -0.2734
     16 C           9.6331   39.5669    3.8976 C.3     1  UNL1        0.1552
     17 C           9.8320   37.3779    3.1279 C.3     1  UNL1        0.0862
     18 N           9.0060   38.5684    3.0506 N.3     1  UNL1       -0.2886
     19 H           8.9602   38.9026    2.0880 H       1  UNL1        0.1237
     20 N          15.7063   40.7877    8.7463 N.pl3   1  UNL1       -0.2820
     21 H          16.6537   40.7302    8.4850 H       1  UNL1        0.1551
     22 C          15.3208   40.0371    9.9056 C.ar    1  UNL1        0.1526
     23 C          13.6728   39.3002   11.4448 C.ar    1  UNL1        0.1210
     24 C          14.6431   38.5757   12.1382 C.ar    1  UNL1        0.1196
     25 C          16.2889   39.3107   10.6022 C.ar    1  UNL1        0.1332
     26 N          14.0323   40.0137   10.3456 N.ar    1  UNL1       -0.2258
     27 N          15.9299   38.5968   11.7020 N.ar    1  UNL1       -0.2378
@<TRIPOS>BOND
     1     1     2    1
     2     2     7   ar
     3     3     4   ar
     4     4    20    1
     5     5     6   ar
     6     8     5    1
     7     8     9    1
     8     9    10    1
     9    10    11    1
    10    11    14    1
    11    12    14    1
    12    12     8    1
    13    16    13    1
    14    16    18    1
    15    17    18    1
    16    23    26   ar
    17    24    27   ar
    18    25    22   ar
    19    14    13   am
    20    20    22    1
    21     2     3   ar
    22     4     6   ar
    23     5     7   ar
    24    13    15    2
    25    22    26   ar
    26    23    24   ar
    27    25    27   ar
    28    18    19    1
    29    20    21    1
@<TRIPOS>MOLECULE
Molport-020-279-146 MCULE-3336476174 MCULE-7297811487 PubChem-110255900
 27 29 0 0 0
SMALL
GASTEIGER

@<TRIPOS>ATOM
      1 C          16.2440   44.3775    6.4299 C.3     1  UNL1        0.0522
      2 C          15.3490   43.2585    6.8237 C.ar    1  UNL1        0.0635
      3 C          14.1510   43.0521    6.1435 C.ar    1  UNL1        0.0492
      4 C          13.3287   41.9904    6.5358 C.ar    1  UNL1        0.1358
      5 C          14.8912   41.4072    8.2205 C.ar    1  UNL1        0.1414
      6 N          13.7195   41.1934    7.5654 N.ar    1  UNL1       -0.2159
      7 N          15.6988   42.4368    7.8463 N.ar    1  UNL1       -0.2348
      8 C          15.2814   40.5049    9.3434 C.3     1  UNL1        0.0785
      9 C          16.7997   40.5022    9.5325 C.3     1  UNL1        0.0110
     10 C          17.1907   39.5784   10.6844 C.3     1  UNL1        0.0220
     11 C          16.6867   38.1642   10.4127 C.3     1  UNL1        0.0935
     12 C          14.7677   39.0870    9.0952 C.3     1  UNL1        0.1009
     13 C          14.3427   37.4120   10.9343 C.2     1  UNL1        0.2418
     14 N          15.2504   38.2020   10.1522 N.am    1  UNL1       -0.2780
     15 O          14.7815   36.6525   11.8391 O.2     1  UNL1       -0.2734
     16 C          12.8734   37.4467   10.6732 C.3     1  UNL1        0.1552
     17 C          13.7013   35.5526    9.6004 C.3     1  UNL1        0.0862
     18 N          12.4792   36.2578    9.9392 N.3     1  UNL1       -0.2886
     19 H          11.9772   36.5189    9.0906 H       1  UNL1        0.1237
     20 N          12.0812   41.7159    5.8826 N.pl3   1  UNL1       -0.2820
     21 H          12.1339   41.4498    4.9361 H       1  UNL1        0.1551
     22 C          10.7663   41.7847    6.4505 C.ar    1  UNL1        0.1526
     23 C           9.3252   42.0198    8.3202 C.ar    1  UNL1        0.1210
     24 C           8.2162   41.9096    7.4804 C.ar    1  UNL1        0.1196
     25 C           9.6540   41.6748    5.6133 C.ar    1  UNL1        0.1332
     26 N          10.5738   41.9551    7.7877 N.ar    1  UNL1       -0.2258
     27 N           8.4047   41.7394    6.1454 N.ar    1  UNL1       -0.2378
@<TRIPOS>BOND
     1     1     2    1
     2     2     7   ar
     3     3     4   ar
     4     4    20    1
     5     5     6   ar
     6     8     5    1
     7     8     9    1
     8     9    10    1
     9    10    11    1
    10    11    14    1
    11    12    14    1
    12    12     8    1
    13    16    13    1
    14    16    18    1
    15    17    18    1
    16    23    26   ar
    17    24    27   ar
    18    25    22   ar
    19    14    13   am
    20    20    22    1
    21     2     3   ar
    22     4     6   ar
    23     5     7   ar
    24    13    15    2
    25    22    26   ar
    26    23    24   ar
    27    25    27   ar
    28    18    19    1
    29    20    21    1
@<TRIPOS>MOLECULE
Molport-020-279-146 MCULE-3336476174 MCULE-7297811487 PubChem-110255900
 27 29 0 0 0
SMALL
GASTEIGER

@<TRIPOS>ATOM
      1 C          16.1286   43.5822    6.6311 C.3     1  UNL1        0.0522
      2 C          14.9271   42.7470    6.8894 C.ar    1  UNL1        0.0635
      3 C          13.7598   42.9608    6.1599 C.ar    1  UNL1        0.0492
      4 C          12.6444   42.1588    6.4244 C.ar    1  UNL1        0.1358
      5 C          13.8756   41.0006    8.0864 C.ar    1  UNL1        0.1414
      6 N          12.7300   41.1975    7.3818 N.ar    1  UNL1       -0.2159
      7 N          14.9666   41.7748    7.8364 N.ar    1  UNL1       -0.2348
      8 C          13.9249   39.9313    9.1264 C.3     1  UNL1        0.0785
      9 C          12.7507   40.0671   10.0979 C.3     1  UNL1        0.0110
     10 C          12.8070   38.9684   11.1574 C.3     1  UNL1        0.0220
     11 C          14.1314   39.0389   11.9117 C.3     1  UNL1        0.0935
     12 C          15.2541   39.9765    9.8794 C.3     1  UNL1        0.1009
     13 C          16.2564   37.9884   11.0675 C.2     1  UNL1        0.2418
     14 N          15.2365   38.9922   10.9584 N.am    1  UNL1       -0.2780
     15 O          16.2233   37.1511   12.0086 O.2     1  UNL1       -0.2734
     16 C          17.3883   37.9352   10.0958 C.3     1  UNL1        0.1552
     17 C          18.0924   35.9130    9.1798 C.3     1  UNL1        0.0862
     18 N          17.0969   36.9617    9.0589 N.3     1  UNL1       -0.2886
     19 H          17.1568   37.3989    8.1393 H       1  UNL1        0.1237
     20 N          11.4086   42.3202    5.7136 N.pl3   1  UNL1       -0.2820
     21 H          11.3175   43.1414    5.1783 H       1  UNL1        0.1551
     22 C          10.2909   41.4221    5.6938 C.ar    1  UNL1        0.1526
     23 C           8.2787   40.5951    6.6397 C.ar    1  UNL1        0.1210
     24 C           8.1680   39.6716    5.5994 C.ar    1  UNL1        0.1196
     25 C          10.1767   40.4965    4.6542 C.ar    1  UNL1        0.1332
     26 N           9.3358   41.4486    6.6640 N.ar    1  UNL1       -0.2258
     27 N           9.1194   39.6424    4.6294 N.ar    1  UNL1       -0.2378
@<TRIPOS>BOND
     1     1     2    1
     2     2     7   ar
     3     3     4   ar
     4     4    20    1
     5     5     6   ar
     6     8     5    1
     7     8     9    1
     8     9    10    1
     9    10    11    1
    10    11    14    1
    11    12    14    1
    12    12     8    1
    13    16    13    1
    14    16    18    1
    15    17    18    1
    16    23    26   ar
    17    24    27   ar
    18    25    22   ar
    19    14    13   am
    20    20    22    1
    21     2     3   ar
    22     4     6   ar
    23     5     7   ar
    24    13    15    2
    25    22    26   ar
    26    23    24   ar
    27    25    27   ar
    28    18    19    1
    29    20    21    1
@<TRIPOS>MOLECULE
Molport-020-279-146 MCULE-3336476174 MCULE-7297811487 PubChem-110255900
 27 29 0 0 0
SMALL
GASTEIGER

@<TRIPOS>ATOM
      1 C          10.1064   39.3906    3.6304 C.3     1  UNL1        0.0522
      2 C          10.2703   39.9018    5.0160 C.ar    1  UNL1        0.0635
      3 C          11.5280   40.2919    5.4706 C.ar    1  UNL1        0.0492
      4 C          11.6521   40.7697    6.7796 C.ar    1  UNL1        0.1358
      5 C           9.3260   40.4547    7.1114 C.ar    1  UNL1        0.1414
      6 N          10.5470   40.8395    7.5683 N.ar    1  UNL1       -0.2159
      7 N           9.1943   39.9891    5.8394 N.ar    1  UNL1       -0.2348
      8 C           8.1397   40.5515    8.0117 C.3     1  UNL1        0.0785
      9 C           6.8764   40.8702    7.2096 C.3     1  UNL1        0.0110
     10 C           5.6669   40.9655    8.1375 C.3     1  UNL1        0.0220
     11 C           5.9066   42.0356    9.1983 C.3     1  UNL1        0.0935
     12 C           8.3714   41.6073    9.0923 C.3     1  UNL1        0.1009
     13 C           7.1883   41.6095   11.3215 C.2     1  UNL1        0.2418
     14 N           7.1599   41.7577    9.8942 N.am    1  UNL1       -0.2780
     15 O           6.1315   41.7468   11.9939 O.2     1  UNL1       -0.2734
     16 C           8.4662   41.3247   12.0385 C.3     1  UNL1        0.1552
     17 C           9.2554   41.1461   14.2224 C.3     1  UNL1        0.0862
     18 N           8.4510   41.9697   13.3391 N.3     1  UNL1       -0.2886
     19 H           7.4951   42.0315   13.6898 H       1  UNL1        0.1237
     20 N          12.9142   41.1899    7.3171 N.pl3   1  UNL1       -0.2820
     21 H          13.2614   40.6660    8.0749 H       1  UNL1        0.1551
     22 C          13.7276   42.2856    6.8768 C.ar    1  UNL1        0.1526
     23 C          15.8126   43.4134    6.7835 C.ar    1  UNL1        0.1210
     24 C          15.2371   44.4145    6.0000 C.ar    1  UNL1        0.1196
     25 C          13.1553   43.2893    6.0925 C.ar    1  UNL1        0.1332
     26 N          15.0466   42.3727    7.2040 N.ar    1  UNL1       -0.2258
     27 N          13.9211   44.3307    5.6717 N.ar    1  UNL1       -0.2378
@<TRIPOS>BOND
     1     1     2    1
     2     2     7   ar
     3     3     4   ar
     4     4    20    1
     5     5     6   ar
     6     8     5    1
     7     8     9    1
     8     9    10    1
     9    10    11    1
    10    11    14    1
    11    12    14    1
    12    12     8    1
    13    16    13    1
    14    16    18    1
    15    17    18    1
    16    23    26   ar
    17    24    27   ar
    18    25    22   ar
    19    14    13   am
    20    20    22    1
    21     2     3   ar
    22     4     6   ar
    23     5     7   ar
    24    13    15    2
    25    22    26   ar
    26    23    24   ar
    27    25    27   ar
    28    18    19    1
    29    20    21    1
