@<TRIPOS>MOLECULE
MolPort-046-971-623 MCULE-4970651089 PubChem-110111561
 28 31 0 0 0
SMALL
GASTEIGER

@<TRIPOS>ATOM
      1 C          12.5146   41.3451    7.7655 C.ar    1  UNL1        0.1329
      2 C          11.4520   41.3914    9.8934 C.ar    1  UNL1        0.1000
      3 C          11.6857   40.0262   10.0655 C.ar    1  UNL1        0.0165
      4 C          12.3493   39.3124    9.0595 C.ar    1  UNL1       -0.0168
      5 C          12.7659   39.9777    7.9042 C.ar    1  UNL1        0.0302
      6 N          11.8672   42.0160    8.7591 N.ar    1  UNL1       -0.2291
      7 C          12.6222   37.8493    9.1975 C.3     1  UNL1        0.0385
      8 C          11.5992   37.1764   10.1192 C.3     1  UNL1        0.0072
      9 C          12.1091   35.8537   10.6963 C.3     1  UNL1        0.0177
     10 C          13.2180   35.2709    9.8235 C.3     1  UNL1        0.0724
     11 C          14.0568   37.5898    9.6741 C.3     1  UNL1        0.0767
     12 N          14.3916   36.1554    9.7843 N.3     1  UNL1       -0.2674
     13 C          15.1499   35.7906    8.5971 C.3     1  UNL1        0.1183
     14 C          16.6019   36.0837    8.7984 C.ar    1  UNL1        0.0739
     15 C          17.1457   36.8118    9.8337 C.ar    1  UNL1        0.1147
     16 C          18.7286   36.1354    8.5307 C.ar    1  UNL1        0.1784
     17 C          17.4746   34.8680    6.7869 C.3     1  UNL1        0.1318
     18 N          18.4856   36.8400    9.6578 N.ar    1  UNL1       -0.2226
     19 N          17.5904   35.6661    7.9952 N.ar    1  UNL1       -0.3092
     20 N          12.9496   42.0145    6.5759 N.pl3   1  UNL1       -0.2836
     21 H          12.4930   41.7718    5.7382 H       1  UNL1        0.1550
     22 C          15.4115   41.6315    8.0541 C.3     1  UNL1        0.0340
     23 C          15.1852   42.8276    7.1941 C.ar    1  UNL1        0.0099
     24 C          13.9854   43.0041    6.4850 C.ar    1  UNL1        0.1291
     25 C          14.7900   45.0653    5.6029 C.ar    1  UNL1        0.1003
     26 C          15.9935   44.9210    6.2938 C.ar    1  UNL1        0.0204
     27 C          16.1875   43.7944    7.0927 C.ar    1  UNL1        0.0001
     28 N          13.8235   44.1147    5.7111 N.ar    1  UNL1       -0.2294
@<TRIPOS>BOND
     1    22    23    1
     2    24    28   ar
     3    24    20    1
     4    25    26   ar
     5    27    23   ar
     6     2     6   ar
     7     3     4   ar
     8     5     1   ar
     9     7     4    1
    10     7     8    1
    11     8     9    1
    12     9    10    1
    13    10    12    1
    14    11    12    1
    15    11     7    1
    16    13    12    1
    17    13    14    1
    18    15    18   ar
    19    16    19   ar
    20    17    19    1
    21    20     1    1
    22    19    14   ar
    23    23    24   ar
    24    25    28   ar
    25    26    27   ar
    26     1     6   ar
    27     2     3   ar
    28     4     5   ar
    29    14    15   ar
    30    16    18   ar
    31    20    21    1
@<TRIPOS>MOLECULE
MolPort-046-971-623 MCULE-4970651089 PubChem-110111561
 28 31 0 0 0
SMALL
GASTEIGER

@<TRIPOS>ATOM
      1 C          12.5730   41.1193    7.8898 C.ar    1  UNL1        0.1329
      2 C          11.6707   40.8362   10.0728 C.ar    1  UNL1        0.1000
      3 C          12.0705   39.4991   10.0897 C.ar    1  UNL1        0.0165
      4 C          12.7356   38.9686    8.9770 C.ar    1  UNL1       -0.0168
      5 C          12.9880   39.7853    7.8723 C.ar    1  UNL1        0.0302
      6 N          11.9278   41.6105    8.9848 N.ar    1  UNL1       -0.2291
      7 C          13.1830   37.5427    8.9477 C.3     1  UNL1        0.0385
      8 C          12.4842   36.7173   10.0336 C.3     1  UNL1        0.0072
      9 C          13.2505   35.4398   10.3848 C.3     1  UNL1        0.0177
     10 C          14.1733   35.0271    9.2407 C.3     1  UNL1        0.0724
     11 C          14.7087   37.4321    9.0592 C.3     1  UNL1        0.0767
     12 N          15.2061   36.0429    8.9905 N.3     1  UNL1       -0.2674
     13 C          15.6931   35.8190    7.6376 C.3     1  UNL1        0.1183
     14 C          16.6309   34.6553    7.6095 C.ar    1  UNL1        0.0739
     15 C          17.6786   34.4377    8.4770 C.ar    1  UNL1        0.1147
     16 C          17.5829   32.8157    7.0555 C.ar    1  UNL1        0.1784
     17 C          15.6311   33.4623    5.6440 C.3     1  UNL1        0.1318
     18 N          18.2734   33.2772    8.1213 N.ar    1  UNL1       -0.2226
     19 N          16.5770   33.6438    6.7317 N.ar    1  UNL1       -0.3092
     20 N          12.8405   41.9454    6.7504 N.pl3   1  UNL1       -0.2836
     21 H          12.2336   41.8502    5.9812 H       1  UNL1        0.1550
     22 C          15.3343   41.4860    8.1515 C.3     1  UNL1        0.0340
     23 C          15.1214   42.6844    7.2911 C.ar    1  UNL1        0.0099
     24 C          13.9062   42.8981    6.6196 C.ar    1  UNL1        0.1291
     25 C          14.7521   44.9254    5.6984 C.ar    1  UNL1        0.1003
     26 C          15.9716   44.7436    6.3513 C.ar    1  UNL1        0.0204
     27 C          16.1526   43.6155    7.1512 C.ar    1  UNL1        0.0001
     28 N          13.7576   44.0093    5.8439 N.ar    1  UNL1       -0.2294
@<TRIPOS>BOND
     1    22    23    1
     2    24    28   ar
     3    24    20    1
     4    25    26   ar
     5    27    23   ar
     6     2     6   ar
     7     3     4   ar
     8     5     1   ar
     9     7     4    1
    10     7     8    1
    11     8     9    1
    12     9    10    1
    13    10    12    1
    14    11    12    1
    15    11     7    1
    16    13    12    1
    17    13    14    1
    18    15    18   ar
    19    16    19   ar
    20    17    19    1
    21    20     1    1
    22    19    14   ar
    23    23    24   ar
    24    25    28   ar
    25    26    27   ar
    26     1     6   ar
    27     2     3   ar
    28     4     5   ar
    29    14    15   ar
    30    16    18   ar
    31    20    21    1
@<TRIPOS>MOLECULE
MolPort-046-971-623 MCULE-4970651089 PubChem-110111561
 28 31 0 0 0
SMALL
GASTEIGER

@<TRIPOS>ATOM
      1 C          12.9800   41.7203    7.2796 C.ar    1  UNL1        0.1329
      2 C          10.7232   41.0729    7.6636 C.ar    1  UNL1        0.1000
      3 C          11.1354   40.0791    8.5526 C.ar    1  UNL1        0.0165
      4 C          12.5027   39.9091    8.8045 C.ar    1  UNL1       -0.0168
      5 C          13.4284   40.7360    8.1640 C.ar    1  UNL1        0.0302
      6 N          11.6443   41.8647    7.0522 N.ar    1  UNL1       -0.2291
      7 C          12.9930   38.8586    9.7480 C.3     1  UNL1        0.0385
      8 C          13.3335   39.4554   11.1180 C.3     1  UNL1        0.0072
      9 C          14.2931   38.5738   11.9208 C.3     1  UNL1        0.0177
     10 C          14.2373   37.1272   11.4359 C.3     1  UNL1        0.0724
     11 C          14.1856   38.0923    9.1623 C.3     1  UNL1        0.0767
     12 N          14.6804   37.0114   10.0390 N.3     1  UNL1       -0.2674
     13 C          14.1432   35.7572    9.5331 C.3     1  UNL1        0.1183
     14 C          15.2067   34.9883    8.8172 C.ar    1  UNL1        0.0739
     15 C          16.4185   35.4857    8.3911 C.ar    1  UNL1        0.1147
     16 C          16.2863   33.3938    7.8741 C.ar    1  UNL1        0.1784
     17 C          14.0369   32.7717    8.7534 C.3     1  UNL1        0.1318
     18 N          17.0926   34.4754    7.7978 N.ar    1  UNL1       -0.2226
     19 N          15.1328   33.6895    8.4943 N.ar    1  UNL1       -0.3092
     20 N          13.9409   42.5623    6.6315 N.pl3   1  UNL1       -0.2836
     21 H          13.6716   42.9646    5.7743 H       1  UNL1        0.1550
     22 C          15.2108   45.0205    5.7727 C.3     1  UNL1        0.0340
     23 C          15.8822   44.0681    6.7023 C.ar    1  UNL1        0.0099
     24 C          15.2576   42.8772    7.1086 C.ar    1  UNL1        0.1291
     25 C          17.1565   42.3125    8.4312 C.ar    1  UNL1        0.1003
     26 C          17.8053   43.4866    8.0475 C.ar    1  UNL1        0.0204
     27 C          17.1607   44.3661    7.1779 C.ar    1  UNL1        0.0001
     28 N          15.9110   42.0366    7.9600 N.ar    1  UNL1       -0.2294
@<TRIPOS>BOND
     1    22    23    1
     2    24    28   ar
     3    24    20    1
     4    25    26   ar
     5    27    23   ar
     6     2     6   ar
     7     3     4   ar
     8     5     1   ar
     9     7     4    1
    10     7     8    1
    11     8     9    1
    12     9    10    1
    13    10    12    1
    14    11    12    1
    15    11     7    1
    16    13    12    1
    17    13    14    1
    18    15    18   ar
    19    16    19   ar
    20    17    19    1
    21    20     1    1
    22    19    14   ar
    23    23    24   ar
    24    25    28   ar
    25    26    27   ar
    26     1     6   ar
    27     2     3   ar
    28     4     5   ar
    29    14    15   ar
    30    16    18   ar
    31    20    21    1
@<TRIPOS>MOLECULE
MolPort-046-971-623 MCULE-4970651089 PubChem-110111561
 28 31 0 0 0
SMALL
GASTEIGER

@<TRIPOS>ATOM
      1 C           6.9651   41.2827    7.2622 C.ar    1  UNL1        0.1329
      2 C           7.6311   39.5088    5.8237 C.ar    1  UNL1        0.1000
      3 C           8.9384   39.5765    6.3075 C.ar    1  UNL1        0.0165
      4 C           9.2572   40.5220    7.2906 C.ar    1  UNL1       -0.0168
      5 C           8.2633   41.3783    7.7698 C.ar    1  UNL1        0.0302
      6 N           6.6815   40.3542    6.3062 N.ar    1  UNL1       -0.2291
      7 C          10.6430   40.6331    7.8397 C.3     1  UNL1        0.0385
      8 C          10.6602   40.4154    9.3567 C.3     1  UNL1        0.0072
      9 C          11.9034   41.0110   10.0216 C.3     1  UNL1        0.0177
     10 C          13.0376   41.1688    9.0118 C.3     1  UNL1        0.0724
     11 C          11.2895   41.9716    7.4617 C.3     1  UNL1        0.0767
     12 N          12.6785   42.1130    7.9439 N.3     1  UNL1       -0.2674
     13 C          13.5618   41.8305    6.8224 C.3     1  UNL1        0.1183
     14 C          14.3624   43.0439    6.4739 C.ar    1  UNL1        0.0739
     15 C          13.9789   44.0476    5.6119 C.ar    1  UNL1        0.1147
     16 C          15.9342   44.5006    6.4071 C.ar    1  UNL1        0.1784
     17 C          16.3601   42.5545    7.9075 C.3     1  UNL1        0.1318
     18 N          14.9744   44.9613    5.5751 N.ar    1  UNL1       -0.2226
     19 N          15.5758   43.3330    6.9645 N.ar    1  UNL1       -0.3092
     20 N           5.9556   42.1663    7.7646 N.pl3   1  UNL1       -0.2836
     21 H           5.7385   42.9517    7.2121 H       1  UNL1        0.1550
     22 C           3.9354   44.1225    8.4612 C.3     1  UNL1        0.0340
     23 C           4.2448   42.9597    9.3409 C.ar    1  UNL1        0.0099
     24 C           5.2294   42.0197    8.9940 C.ar    1  UNL1        0.1291
     25 C           4.8016   40.8064   10.9988 C.ar    1  UNL1        0.1003
     26 C           3.8174   41.7216   11.3734 C.ar    1  UNL1        0.0204
     27 C           3.5411   42.8028   10.5367 C.ar    1  UNL1        0.0001
     28 N           5.4779   40.9724    9.8307 N.ar    1  UNL1       -0.2294
@<TRIPOS>BOND
     1    22    23    1
     2    24    28   ar
     3    24    20    1
     4    25    26   ar
     5    27    23   ar
     6     2     6   ar
     7     3     4   ar
     8     5     1   ar
     9     7     4    1
    10     7     8    1
    11     8     9    1
    12     9    10    1
    13    10    12    1
    14    11    12    1
    15    11     7    1
    16    13    12    1
    17    13    14    1
    18    15    18   ar
    19    16    19   ar
    20    17    19    1
    21    20     1    1
    22    19    14   ar
    23    23    24   ar
    24    25    28   ar
    25    26    27   ar
    26     1     6   ar
    27     2     3   ar
    28     4     5   ar
    29    14    15   ar
    30    16    18   ar
    31    20    21    1
@<TRIPOS>MOLECULE
MolPort-046-971-623 MCULE-4970651089 PubChem-110111561
 28 31 0 0 0
SMALL
GASTEIGER

@<TRIPOS>ATOM
      1 C           7.9531   41.4252    9.4795 C.ar    1  UNL1        0.1329
      2 C           8.7402   41.6199   11.7160 C.ar    1  UNL1        0.1000
      3 C          10.0376   41.3019   11.3115 C.ar    1  UNL1        0.0165
      4 C          10.2890   41.0409    9.9585 C.ar    1  UNL1       -0.0168
      5 C           9.2395   41.1043    9.0390 C.ar    1  UNL1        0.0302
      6 N           7.7355   41.6747   10.8012 N.ar    1  UNL1       -0.2291
      7 C          11.6612   40.6958    9.4769 C.3     1  UNL1        0.0385
      8 C          12.4341   39.8908   10.5274 C.3     1  UNL1        0.0072
      9 C          13.9493   39.9598   10.3226 C.3     1  UNL1        0.0177
     10 C          14.2871   40.3204    8.8780 C.3     1  UNL1        0.0724
     11 C          12.4376   41.9489    9.0534 C.3     1  UNL1        0.0767
     12 N          13.7867   41.6573    8.5270 N.3     1  UNL1       -0.2674
     13 C          13.7096   41.7064    7.0747 C.3     1  UNL1        0.1183
     14 C          14.3882   42.9349    6.5601 C.ar    1  UNL1        0.0739
     15 C          13.8452   43.8579    5.6936 C.ar    1  UNL1        0.1147
     16 C          15.8498   44.4655    6.2163 C.ar    1  UNL1        0.1784
     17 C          16.5676   42.6479    7.7658 C.3     1  UNL1        0.1318
     18 N          14.7721   44.8187    5.4818 N.ar    1  UNL1       -0.2226
     19 N          15.6314   43.3198    6.8812 N.ar    1  UNL1       -0.3092
     20 N           6.8870   41.4884    8.5246 N.pl3   1  UNL1       -0.2836
     21 H           6.8707   40.7899    7.8310 H       1  UNL1        0.1550
     22 C           7.1762   43.7926    6.7926 C.3     1  UNL1        0.0340
     23 C           5.9673   43.5892    7.6405 C.ar    1  UNL1        0.0099
     24 C           5.8402   42.4695    8.4793 C.ar    1  UNL1        0.1291
     25 C           3.7071   43.2376    9.2098 C.ar    1  UNL1        0.1003
     26 C           3.8012   44.3610    8.3879 C.ar    1  UNL1        0.0204
     27 C           4.9395   44.5336    7.6008 C.ar    1  UNL1        0.0001
     28 N           4.7160   42.3262    9.2371 N.ar    1  UNL1       -0.2294
@<TRIPOS>BOND
     1    22    23    1
     2    24    28   ar
     3    24    20    1
     4    25    26   ar
     5    27    23   ar
     6     2     6   ar
     7     3     4   ar
     8     5     1   ar
     9     7     4    1
    10     7     8    1
    11     8     9    1
    12     9    10    1
    13    10    12    1
    14    11    12    1
    15    11     7    1
    16    13    12    1
    17    13    14    1
    18    15    18   ar
    19    16    19   ar
    20    17    19    1
    21    20     1    1
    22    19    14   ar
    23    23    24   ar
    24    25    28   ar
    25    26    27   ar
    26     1     6   ar
    27     2     3   ar
    28     4     5   ar
    29    14    15   ar
    30    16    18   ar
    31    20    21    1
@<TRIPOS>MOLECULE
MolPort-046-971-623 MCULE-4970651089 PubChem-110111561
 28 31 0 0 0
SMALL
GASTEIGER

@<TRIPOS>ATOM
      1 C          16.4043   40.7484    9.3249 C.ar    1  UNL1        0.1329
      2 C          17.0567   39.1725   10.9834 C.ar    1  UNL1        0.1000
      3 C          15.7689   38.6352   11.0123 C.ar    1  UNL1        0.0165
      4 C          14.7829   39.1731   10.1753 C.ar    1  UNL1       -0.0168
      5 C          15.1048   40.2351    9.3271 C.ar    1  UNL1        0.0302
      6 N          17.3447   40.2069   10.1489 N.ar    1  UNL1       -0.2291
      7 C          13.3896   38.6320   10.1706 C.3     1  UNL1        0.0385
      8 C          13.3530   37.1833   10.6694 C.3     1  UNL1        0.0072
      9 C          12.0990   36.4354   10.2104 C.3     1  UNL1        0.0177
     10 C          10.9778   37.4131    9.8668 C.3     1  UNL1        0.0724
     11 C          12.7436   38.7607    8.7855 C.3     1  UNL1        0.0767
     12 N          11.3477   38.2797    8.7385 N.3     1  UNL1       -0.2674
     13 C          10.4805   39.4463    8.8060 C.3     1  UNL1        0.1183
     14 C           9.4725   39.4082    7.7029 C.ar    1  UNL1        0.0739
     15 C           9.0179   38.2783    7.0592 C.ar    1  UNL1        0.1147
     16 C           8.0331   40.0129    6.2332 C.ar    1  UNL1        0.1784
     17 C           9.0280   41.8718    7.5653 C.3     1  UNL1        0.1318
     18 N           8.1118   38.6676    6.1348 N.ar    1  UNL1       -0.2226
     19 N           8.8555   40.4801    7.1860 N.ar    1  UNL1       -0.3092
     20 N          16.7203   41.8364    8.4481 N.pl3   1  UNL1       -0.2836
     21 H          17.6423   42.1799    8.4818 H       1  UNL1        0.1550
     22 C          17.6261   44.1565    6.9685 C.3     1  UNL1        0.0340
     23 C          16.2543   43.5986    6.7993 C.ar    1  UNL1        0.0099
     24 C          15.8253   42.4751    7.5254 C.ar    1  UNL1        0.1291
     25 C          13.6945   42.5832    6.4662 C.ar    1  UNL1        0.1003
     26 C          14.0884   43.7005    5.7294 C.ar    1  UNL1        0.0204
     27 C          15.3764   44.2076    5.9004 C.ar    1  UNL1        0.0001
     28 N          14.5611   42.0007    7.3374 N.ar    1  UNL1       -0.2294
@<TRIPOS>BOND
     1    22    23    1
     2    24    28   ar
     3    24    20    1
     4    25    26   ar
     5    27    23   ar
     6     2     6   ar
     7     3     4   ar
     8     5     1   ar
     9     7     4    1
    10     7     8    1
    11     8     9    1
    12     9    10    1
    13    10    12    1
    14    11    12    1
    15    11     7    1
    16    13    12    1
    17    13    14    1
    18    15    18   ar
    19    16    19   ar
    20    17    19    1
    21    20     1    1
    22    19    14   ar
    23    23    24   ar
    24    25    28   ar
    25    26    27   ar
    26     1     6   ar
    27     2     3   ar
    28     4     5   ar
    29    14    15   ar
    30    16    18   ar
    31    20    21    1
@<TRIPOS>MOLECULE
MolPort-046-971-623 MCULE-4970651089 PubChem-110111561
 28 31 0 0 0
SMALL
GASTEIGER

@<TRIPOS>ATOM
      1 C          12.0614   41.3638    6.8043 C.ar    1  UNL1        0.1329
      2 C          11.0591   40.4620    4.8443 C.ar    1  UNL1        0.1000
      3 C           9.8124   40.4259    5.4706 C.ar    1  UNL1        0.0165
      4 C           9.6971   40.8705    6.7938 C.ar    1  UNL1       -0.0168
      5 C          10.8290   41.3425    7.4622 C.ar    1  UNL1        0.0302
      6 N          12.1463   40.9256    5.5170 N.ar    1  UNL1       -0.2291
      7 C           8.3836   40.8511    7.5070 C.3     1  UNL1        0.0385
      8 C           7.3113   40.1332    6.6801 C.3     1  UNL1        0.0072
      9 C           5.8907   40.5235    7.0947 C.3     1  UNL1        0.0177
     10 C           5.8699   41.0648    8.5222 C.3     1  UNL1        0.0724
     11 C           7.9350   42.2661    7.8929 C.3     1  UNL1        0.0767
     12 N           6.6614   42.2979    8.6406 N.3     1  UNL1       -0.2674
     13 C           6.9858   42.4521   10.0508 C.3     1  UNL1        0.1183
     14 C           8.3665   43.0029   10.2086 C.ar    1  UNL1        0.0739
     15 C           8.7755   44.2739    9.8696 C.ar    1  UNL1        0.1147
     16 C          10.4488   43.1820   10.6874 C.ar    1  UNL1        0.1784
     17 C           9.4324   40.9641   11.2051 C.3     1  UNL1        0.1318
     18 N          10.0883   44.3787   10.1740 N.ar    1  UNL1       -0.2226
     19 N           9.4098   42.3322   10.7169 N.ar    1  UNL1       -0.3092
     20 N          13.2133   41.8524    7.5019 N.pl3   1  UNL1       -0.2836
     21 H          13.3800   41.4806    8.3981 H       1  UNL1        0.1550
     22 C          15.9783   41.7086    8.3547 C.3     1  UNL1        0.0340
     23 C          15.4926   42.7691    7.4267 C.ar    1  UNL1        0.0099
     24 C          14.1484   42.8307    7.0233 C.ar    1  UNL1        0.1291
     25 C          14.6159   44.7557    5.7006 C.ar    1  UNL1        0.1003
     26 C          15.9577   44.7235    6.0813 C.ar    1  UNL1        0.0204
     27 C          16.3938   43.7229    6.9495 C.ar    1  UNL1        0.0001
     28 N          13.7504   43.8193    6.1732 N.ar    1  UNL1       -0.2294
@<TRIPOS>BOND
     1    22    23    1
     2    24    28   ar
     3    24    20    1
     4    25    26   ar
     5    27    23   ar
     6     2     6   ar
     7     3     4   ar
     8     5     1   ar
     9     7     4    1
    10     7     8    1
    11     8     9    1
    12     9    10    1
    13    10    12    1
    14    11    12    1
    15    11     7    1
    16    13    12    1
    17    13    14    1
    18    15    18   ar
    19    16    19   ar
    20    17    19    1
    21    20     1    1
    22    19    14   ar
    23    23    24   ar
    24    25    28   ar
    25    26    27   ar
    26     1     6   ar
    27     2     3   ar
    28     4     5   ar
    29    14    15   ar
    30    16    18   ar
    31    20    21    1
@<TRIPOS>MOLECULE
MolPort-046-971-623 MCULE-4970651089 PubChem-110111561
 28 31 0 0 0
SMALL
GASTEIGER

@<TRIPOS>ATOM
      1 C          13.6282   40.9684    8.7769 C.ar    1  UNL1        0.1329
      2 C          13.4977   39.6583   10.7583 C.ar    1  UNL1        0.1000
      3 C          12.2180   40.1472   11.0249 C.ar    1  UNL1        0.0165
      4 C          11.6382   41.0674   10.1421 C.ar    1  UNL1       -0.0168
      5 C          12.3488   41.4782    9.0120 C.ar    1  UNL1        0.0302
      6 N          14.1691   40.0744    9.6514 N.ar    1  UNL1       -0.2291
      7 C          10.2707   41.6196   10.3849 C.3     1  UNL1        0.0385
      8 C           9.8313   41.4010   11.8368 C.3     1  UNL1        0.0072
      9 C           8.3115   41.4632   12.0064 C.3     1  UNL1        0.0177
     10 C           7.6683   42.2464   10.8645 C.3     1  UNL1        0.0724
     11 C           9.2489   41.0377    9.4001 C.3     1  UNL1        0.0767
     12 N           7.8877   41.5858    9.5697 N.3     1  UNL1       -0.2674
     13 C           7.6938   42.6005    8.5449 C.3     1  UNL1        0.1183
     14 C           6.3150   43.1711    8.6338 C.ar    1  UNL1        0.0739
     15 C           5.9860   44.5077    8.5787 C.ar    1  UNL1        0.1147
     16 C           4.1843   43.3398    8.8036 C.ar    1  UNL1        0.1784
     17 C           5.0683   41.0087    8.8690 C.3     1  UNL1        0.1318
     18 N           4.6422   44.6056    8.6865 N.ar    1  UNL1       -0.2226
     19 N           5.1917   42.4529    8.7716 N.ar    1  UNL1       -0.3092
     20 N          14.3441   41.3974    7.6126 N.pl3   1  UNL1       -0.2836
     21 H          14.0384   41.0410    6.7473 H       1  UNL1        0.1550
     22 C          14.2353   43.7444    5.9177 C.3     1  UNL1        0.0340
     23 C          15.4209   43.4391    6.7680 C.ar    1  UNL1        0.0099
     24 C          15.4634   42.2957    7.5830 C.ar    1  UNL1        0.1291
     25 C          17.6417   42.8944    8.3385 C.ar    1  UNL1        0.1003
     26 C          17.6322   44.0388    7.5406 C.ar    1  UNL1        0.0204
     27 C          16.5135   44.3084    6.7525 C.ar    1  UNL1        0.0001
     28 N          16.5696   42.0577    8.3435 N.ar    1  UNL1       -0.2294
@<TRIPOS>BOND
     1    22    23    1
     2    24    28   ar
     3    24    20    1
     4    25    26   ar
     5    27    23   ar
     6     2     6   ar
     7     3     4   ar
     8     5     1   ar
     9     7     4    1
    10     7     8    1
    11     8     9    1
    12     9    10    1
    13    10    12    1
    14    11    12    1
    15    11     7    1
    16    13    12    1
    17    13    14    1
    18    15    18   ar
    19    16    19   ar
    20    17    19    1
    21    20     1    1
    22    19    14   ar
    23    23    24   ar
    24    25    28   ar
    25    26    27   ar
    26     1     6   ar
    27     2     3   ar
    28     4     5   ar
    29    14    15   ar
    30    16    18   ar
    31    20    21    1
@<TRIPOS>MOLECULE
MolPort-046-971-623 MCULE-4970651089 PubChem-110111561
 28 31 0 0 0
SMALL
GASTEIGER

@<TRIPOS>ATOM
      1 C          12.3491   41.4421    6.7898 C.ar    1  UNL1        0.1329
      2 C          10.8013   40.7540    5.1193 C.ar    1  UNL1        0.1000
      3 C           9.7268   41.1202    5.9314 C.ar    1  UNL1        0.0165
      4 C           9.9787   41.6583    7.1998 C.ar    1  UNL1       -0.0168
      5 C          11.2979   41.8200    7.6291 C.ar    1  UNL1        0.0302
      6 N          12.0767   40.9211    5.5606 N.ar    1  UNL1       -0.2291
      7 C           8.8615   42.0650    8.1058 C.3     1  UNL1        0.0385
      8 C           9.3845   42.8313    9.3257 C.3     1  UNL1        0.0072
      9 C           8.3998   42.8132   10.4972 C.3     1  UNL1        0.0177
     10 C           6.9789   42.5412   10.0094 C.3     1  UNL1        0.0724
     11 C           8.0146   40.8577    8.5273 C.3     1  UNL1        0.0767
     12 N           6.8688   41.2129    9.3893 N.3     1  UNL1       -0.2674
     13 C           5.6813   41.2414    8.5487 C.3     1  UNL1        0.1183
     14 C           5.1446   42.6335    8.4558 C.ar    1  UNL1        0.0739
     15 C           5.6912   43.6656    7.7254 C.ar    1  UNL1        0.1147
     16 C           3.9084   44.3650    8.7221 C.ar    1  UNL1        0.1784
     17 C           3.1468   42.3256    9.9390 C.3     1  UNL1        0.1318
     18 N           4.9069   44.7529    7.8985 N.ar    1  UNL1       -0.2226
     19 N           4.0379   43.0747    9.0699 N.ar    1  UNL1       -0.3092
     20 N          13.6970   41.6157    7.2428 N.pl3   1  UNL1       -0.2836
     21 H          14.0588   40.9185    7.8363 H       1  UNL1        0.1550
     22 C          16.3051   41.7647    8.4952 C.3     1  UNL1        0.0340
     23 C          15.8407   42.7868    7.5147 C.ar    1  UNL1        0.0099
     24 C          14.5721   42.7058    6.9168 C.ar    1  UNL1        0.1291
     25 C          15.0015   44.7050    5.6950 C.ar    1  UNL1        0.1003
     26 C          16.2677   44.8155    6.2703 C.ar    1  UNL1        0.0204
     27 C          16.6852   43.8488    7.1849 C.ar    1  UNL1        0.0001
     28 N          14.1907   43.6645    6.0257 N.ar    1  UNL1       -0.2294
@<TRIPOS>BOND
     1    22    23    1
     2    24    28   ar
     3    24    20    1
     4    25    26   ar
     5    27    23   ar
     6     2     6   ar
     7     3     4   ar
     8     5     1   ar
     9     7     4    1
    10     7     8    1
    11     8     9    1
    12     9    10    1
    13    10    12    1
    14    11    12    1
    15    11     7    1
    16    13    12    1
    17    13    14    1
    18    15    18   ar
    19    16    19   ar
    20    17    19    1
    21    20     1    1
    22    19    14   ar
    23    23    24   ar
    24    25    28   ar
    25    26    27   ar
    26     1     6   ar
    27     2     3   ar
    28     4     5   ar
    29    14    15   ar
    30    16    18   ar
    31    20    21    1
@<TRIPOS>MOLECULE
MolPort-046-971-623 MCULE-4970651089 PubChem-110111561
 28 31 0 0 0
SMALL
GASTEIGER

@<TRIPOS>ATOM
      1 C          13.1656   41.4978    7.7597 C.ar    1  UNL1        0.1329
      2 C          11.4370   41.5964    6.1282 C.ar    1  UNL1        0.1000
      3 C          10.4733   41.7541    7.1254 C.ar    1  UNL1        0.0165
      4 C          10.8740   41.7829    8.4673 C.ar    1  UNL1       -0.0168
      5 C          12.2283   41.6547    8.7838 C.ar    1  UNL1        0.0302
      6 N          12.7494   41.4731    6.4625 N.ar    1  UNL1       -0.2291
      7 C           9.8793   41.9494    9.5705 C.3     1  UNL1        0.0385
      8 C          10.5030   41.6356   10.9348 C.3     1  UNL1        0.0072
      9 C           9.4544   41.2886   11.9943 C.3     1  UNL1        0.0177
     10 C           8.0894   41.8581   11.6156 C.3     1  UNL1        0.0724
     11 C           8.6235   41.1040    9.3244 C.3     1  UNL1        0.0767
     12 N           7.5888   41.2674   10.3660 N.3     1  UNL1       -0.2674
     13 C           6.5841   42.1821    9.8449 C.3     1  UNL1        0.1183
     14 C           6.7796   42.3863    8.3770 C.ar    1  UNL1        0.0739
     15 C           6.5939   41.4382    7.3951 C.ar    1  UNL1        0.1147
     16 C           7.2072   43.2966    6.4833 C.ar    1  UNL1        0.1784
     17 C           7.4597   44.7981    8.4585 C.3     1  UNL1        0.1318
     18 N           6.8655   42.0192    6.2052 N.ar    1  UNL1       -0.2226
     19 N           7.1584   43.5370    7.8033 N.ar    1  UNL1       -0.3092
     20 N          14.5514   41.3695    8.0995 N.pl3   1  UNL1       -0.2836
     21 H          14.8200   40.5432    8.5625 H       1  UNL1        0.1550
     22 C          17.1389   41.0515    9.3631 C.3     1  UNL1        0.0340
     23 C          16.8470   42.1810    8.4354 C.ar    1  UNL1        0.0099
     24 C          15.5870   42.3267    7.8316 C.ar    1  UNL1        0.1291
     25 C          16.3308   44.2948    6.7147 C.ar    1  UNL1        0.1003
     26 C          17.5932   44.1797    7.2975 C.ar    1  UNL1        0.0204
     27 C          17.8480   43.1154    8.1622 C.ar    1  UNL1        0.0001
     28 N          15.3664   43.3763    6.9900 N.ar    1  UNL1       -0.2294
@<TRIPOS>BOND
     1    22    23    1
     2    24    28   ar
     3    24    20    1
     4    25    26   ar
     5    27    23   ar
     6     2     6   ar
     7     3     4   ar
     8     5     1   ar
     9     7     4    1
    10     7     8    1
    11     8     9    1
    12     9    10    1
    13    10    12    1
    14    11    12    1
    15    11     7    1
    16    13    12    1
    17    13    14    1
    18    15    18   ar
    19    16    19   ar
    20    17    19    1
    21    20     1    1
    22    19    14   ar
    23    23    24   ar
    24    25    28   ar
    25    26    27   ar
    26     1     6   ar
    27     2     3   ar
    28     4     5   ar
    29    14    15   ar
    30    16    18   ar
    31    20    21    1
