@<TRIPOS>MOLECULE
MolPort-003-061-890 9347616 CSSS03437154845 LN01433103 MCULE-6650959518 PubChem-3622284 ZINC000009347616
 34 37 0 0 0
SMALL
GASTEIGER

@<TRIPOS>ATOM
      1 C           7.5831   41.4832   10.7267 C.2     1  UNL1        0.2499
      2 N           8.2530   42.3594    9.8123 N.am    1  UNL1       -0.2749
      3 O           8.2501   40.7086   11.4659 O.2     1  UNL1       -0.2698
      4 H           7.7345   43.1099    9.4422 H       1  UNL1        0.1557
      5 C           9.6169   42.2310    9.3934 C.ar    1  UNL1        0.0901
      6 C          11.9725   42.6477    8.7198 C.ar    1  UNL1        0.0253
      7 C          11.5493   41.3557    8.4299 C.ar    1  UNL1       -0.0055
      8 C          12.4286   40.3878    7.6881 C.3     1  UNL1        0.0489
      9 C          13.9030   40.7712    7.8453 C.3     1  UNL1        0.1018
     10 C          15.0617   42.6547    6.6580 C.2     1  UNL1        0.4051
     11 C          13.3581   43.1496    8.4624 C.3     1  UNL1        0.1296
     12 C          10.2109   41.1211    8.7815 C.ar    1  UNL1        0.0844
     13 N          14.0746   42.2052    7.6017 N.am    1  UNL1       -0.2411
     14 O          16.0274   41.9003    6.3653 O.2     1  UNL1       -0.2262
     15 S          10.7196   43.5031    9.4398 S.2     1  UNL1       -0.0745
     16 C           9.5116   39.9092    8.4352 C.1     1  UNL1        0.1019
     17 N           8.9506   38.9364    8.1549 N.1     1  UNL1       -0.1908
     18 O          14.9872   43.9105    6.0400 O.3     1  UNL1       -0.4345
     19 C          15.8705   44.9889    6.3225 C.3     1  UNL1        0.2102
     20 C          15.2690   46.2983    5.8467 C.3     1  UNL1        0.0513
     21 C           6.1151   41.5250   10.8420 C.ar    1  UNL1        0.0537
     22 C           5.3171   41.6196    9.6945 C.ar    1  UNL1        0.0046
     23 C           3.9245   41.6553    9.8034 C.ar    1  UNL1        0.0033
     24 C           3.3032   41.5899   11.0598 C.ar    1  UNL1        0.0390
     25 C           4.1072   41.5066   12.2066 C.ar    1  UNL1        0.0033
     26 C           5.4998   41.4706   12.0997 C.ar    1  UNL1        0.0046
     27 C           1.8225   41.6572   11.1479 C.2     1  UNL1        0.1955
     28 O           1.1479   41.3602   10.1230 O.2     1  UNL1       -0.2866
     29 C           1.0934   42.0556   12.3788 C.ar    1  UNL1        0.0390
     30 C          -0.3101   42.0158   12.3948 C.ar    1  UNL1        0.0032
     31 C          -1.0196   42.3607   13.5488 C.ar    1  UNL1        0.0001
     32 C          -0.3322   42.7424   14.7032 C.ar    1  UNL1        0.0000
     33 C           1.0641   42.7759   14.7042 C.ar    1  UNL1        0.0001
     34 C           1.7720   42.4306   13.5495 C.ar    1  UNL1        0.0032
@<TRIPOS>BOND
     1     5     2    1
     2     5    15   ar
     3     1    21    1
     4    22    23   ar
     5    24    25   ar
     6    24    27    1
     7    26    21   ar
     8    27    29    1
     9    30    31   ar
    10    32    33   ar
    11    34    29   ar
    12     6    15   ar
    13     7    12   ar
    14     8     7    1
    15     8     9    1
    16     9    13    1
    17    10    18    1
    18    19    18    1
    19    19    20    1
    20    11    13    1
    21    11     6    1
    22    12    16    1
    23     2     1   am
    24    13    10   am
    25     1     3    2
    26    21    22   ar
    27    23    24   ar
    28    25    26   ar
    29    27    28    2
    30    29    30   ar
    31    31    32   ar
    32    33    34   ar
    33     6     7   ar
    34    10    14    2
    35    12     5   ar
    36    16    17    3
    37     2     4    1
@<TRIPOS>MOLECULE
MolPort-003-061-890 9347616 CSSS03437154845 LN01433103 MCULE-6650959518 PubChem-3622284 ZINC000009347616
 34 37 0 0 0
SMALL
GASTEIGER

@<TRIPOS>ATOM
      1 C           9.4420   40.9530    9.6570 C.2     1  UNL1        0.2499
      2 N           9.7427   39.6555    9.1293 N.am    1  UNL1       -0.2749
      3 O          10.3755   41.7365    9.9827 O.2     1  UNL1       -0.2698
      4 H           9.0200   39.1786    8.6607 H       1  UNL1        0.1557
      5 C          11.0106   38.9962    9.2286 C.ar    1  UNL1        0.0901
      6 C          13.1316   37.9755   10.0259 C.ar    1  UNL1        0.0253
      7 C          13.1041   38.1546    8.6477 C.ar    1  UNL1       -0.0055
      8 C          14.3003   37.8470    7.7905 C.3     1  UNL1        0.0489
      9 C          15.2140   36.8336    8.4858 C.3     1  UNL1        0.1018
     10 C          16.7709   37.3302   10.3909 C.2     1  UNL1        0.4051
     11 C          14.2679   37.3397   10.7625 C.3     1  UNL1        0.1296
     12 C          11.9208   38.7567    8.1926 C.ar    1  UNL1        0.0844
     13 N          15.4312   37.2307    9.8788 N.am    1  UNL1       -0.2411
     14 O          17.7010   36.7021    9.8185 O.2     1  UNL1       -0.2262
     15 S          11.6920   38.5236   10.6945 S.2     1  UNL1       -0.0745
     16 C          11.7331   39.1807    6.8278 C.1     1  UNL1        0.1019
     17 N          11.5838   39.5196    5.7312 N.1     1  UNL1       -0.1908
     18 O          17.0865   38.1122   11.5106 O.3     1  UNL1       -0.4345
     19 C          17.4985   39.4717   11.4398 C.3     1  UNL1        0.2102
     20 C          17.2087   40.0367   10.0616 C.3     1  UNL1        0.0513
     21 C           8.0408   41.3936    9.7695 C.ar    1  UNL1        0.0537
     22 C           7.4233   41.4768   11.0242 C.ar    1  UNL1        0.0046
     23 C           6.0954   41.8983   11.1315 C.ar    1  UNL1        0.0033
     24 C           5.3622   42.2513    9.9884 C.ar    1  UNL1        0.0390
     25 C           5.9818   42.1555    8.7332 C.ar    1  UNL1        0.0033
     26 C           7.3095   41.7344    8.6239 C.ar    1  UNL1        0.0046
     27 C           3.9446   42.6699   10.1291 C.2     1  UNL1        0.1955
     28 O           3.4566   43.4351    9.2515 O.2     1  UNL1       -0.2866
     29 C           3.0705   42.2356   11.2483 C.ar    1  UNL1        0.0390
     30 C           3.2478   40.9608   11.8098 C.ar    1  UNL1        0.0032
     31 C           2.4558   40.5376   12.8811 C.ar    1  UNL1        0.0001
     32 C           1.4817   41.3885   13.4082 C.ar    1  UNL1        0.0000
     33 C           1.3022   42.6632   12.8663 C.ar    1  UNL1        0.0001
     34 C           2.0951   43.0848   11.7951 C.ar    1  UNL1        0.0032
@<TRIPOS>BOND
     1     5     2    1
     2     5    15   ar
     3     1    21    1
     4    22    23   ar
     5    24    25   ar
     6    24    27    1
     7    26    21   ar
     8    27    29    1
     9    30    31   ar
    10    32    33   ar
    11    34    29   ar
    12     6    15   ar
    13     7    12   ar
    14     8     7    1
    15     8     9    1
    16     9    13    1
    17    10    18    1
    18    19    18    1
    19    19    20    1
    20    11    13    1
    21    11     6    1
    22    12    16    1
    23     2     1   am
    24    13    10   am
    25     1     3    2
    26    21    22   ar
    27    23    24   ar
    28    25    26   ar
    29    27    28    2
    30    29    30   ar
    31    31    32   ar
    32    33    34   ar
    33     6     7   ar
    34    10    14    2
    35    12     5   ar
    36    16    17    3
    37     2     4    1
@<TRIPOS>MOLECULE
MolPort-003-061-890 9347616 CSSS03437154845 LN01433103 MCULE-6650959518 PubChem-3622284 ZINC000009347616
 34 37 0 0 0
SMALL
GASTEIGER

@<TRIPOS>ATOM
      1 C          10.6908   39.7416    8.2680 C.2     1  UNL1        0.2499
      2 N          11.4069   39.2052    9.3870 N.am    1  UNL1       -0.2749
      3 O          11.1667   39.6410    7.1040 O.2     1  UNL1       -0.2698
      4 H          10.9068   39.0773   10.2254 H       1  UNL1        0.1557
      5 C          12.7920   38.8401    9.3839 C.ar    1  UNL1        0.0901
      6 C          14.9720   37.6826    9.6741 C.ar    1  UNL1        0.0253
      7 C          15.1143   39.0191    9.3192 C.ar    1  UNL1       -0.0055
      8 C          16.4660   39.6722    9.2396 C.3     1  UNL1        0.0489
      9 C          17.5576   38.6232    9.0085 C.3     1  UNL1        0.1018
     10 C          18.4736   37.0557   10.7417 C.2     1  UNL1        0.4051
     11 C          16.1204   36.7431    9.8656 C.3     1  UNL1        0.1296
     12 C          13.8877   39.6873    9.1811 C.ar    1  UNL1        0.0844
     13 N          17.3732   37.4997    9.9300 N.am    1  UNL1       -0.2411
     14 O          19.6525   37.3230   10.3866 O.2     1  UNL1       -0.2262
     15 S          13.3409   37.3003    9.7892 S.2     1  UNL1       -0.0745
     16 C          13.7907   41.1101    8.9719 C.1     1  UNL1        0.1019
     17 N          13.7149   42.2526    8.8028 N.1     1  UNL1       -0.1908
     18 O          18.2833   36.3347   11.9286 O.3     1  UNL1       -0.4345
     19 C          19.2742   35.5040   12.5213 C.3     1  UNL1        0.2102
     20 C          19.6399   34.3708   11.5806 C.3     1  UNL1        0.0513
     21 C           9.3713   40.3645    8.4705 C.ar    1  UNL1        0.0537
     22 C           8.3382   40.1499    7.5491 C.ar    1  UNL1        0.0046
     23 C           7.0853   40.7374    7.7430 C.ar    1  UNL1        0.0033
     24 C           6.8392   41.5441    8.8644 C.ar    1  UNL1        0.0390
     25 C           7.8806   41.7650    9.7784 C.ar    1  UNL1        0.0033
     26 C           9.1340   41.1782    9.5863 C.ar    1  UNL1        0.0046
     27 C           5.5068   42.1778    9.0313 C.2     1  UNL1        0.1955
     28 O           5.1621   43.0717    8.2092 O.2     1  UNL1       -0.2866
     29 C           4.5583   41.8152   10.1149 C.ar    1  UNL1        0.0390
     30 C           4.6896   40.5766   10.7632 C.ar    1  UNL1        0.0032
     31 C           3.8262   40.2219   11.8038 C.ar    1  UNL1        0.0001
     32 C           2.8257   41.1063   12.2131 C.ar    1  UNL1        0.0000
     33 C           2.6909   42.3460   11.5841 C.ar    1  UNL1        0.0001
     34 C           3.5551   42.6991   10.5438 C.ar    1  UNL1        0.0032
@<TRIPOS>BOND
     1     5     2    1
     2     5    15   ar
     3     1    21    1
     4    22    23   ar
     5    24    25   ar
     6    24    27    1
     7    26    21   ar
     8    27    29    1
     9    30    31   ar
    10    32    33   ar
    11    34    29   ar
    12     6    15   ar
    13     7    12   ar
    14     8     7    1
    15     8     9    1
    16     9    13    1
    17    10    18    1
    18    19    18    1
    19    19    20    1
    20    11    13    1
    21    11     6    1
    22    12    16    1
    23     2     1   am
    24    13    10   am
    25     1     3    2
    26    21    22   ar
    27    23    24   ar
    28    25    26   ar
    29    27    28    2
    30    29    30   ar
    31    31    32   ar
    32    33    34   ar
    33     6     7   ar
    34    10    14    2
    35    12     5   ar
    36    16    17    3
    37     2     4    1
@<TRIPOS>MOLECULE
MolPort-003-061-890 9347616 CSSS03437154845 LN01433103 MCULE-6650959518 PubChem-3622284 ZINC000009347616
 34 37 0 0 0
SMALL
GASTEIGER

@<TRIPOS>ATOM
      1 C           6.4953   41.5445   10.5302 C.2     1  UNL1        0.2499
      2 N           5.1305   41.4527   10.1040 N.am    1  UNL1       -0.2749
      3 O           6.7731   41.5959   11.7597 O.2     1  UNL1       -0.2698
      4 H           4.9640   41.1666    9.1768 H       1  UNL1        0.1557
      5 C           3.9888   41.7437   10.9187 C.ar    1  UNL1        0.0901
      6 C           2.1393   42.8514   12.1551 C.ar    1  UNL1        0.0253
      7 C           2.3426   41.5355   12.5544 C.ar    1  UNL1       -0.0055
      8 C           1.5699   40.9309   13.6935 C.3     1  UNL1        0.0489
      9 C           0.2475   41.6748   13.9014 C.3     1  UNL1        0.1018
     10 C          -0.0137   43.9236   14.9851 C.2     1  UNL1        0.4051
     11 C           1.0614   43.7326   12.7024 C.3     1  UNL1        0.1296
     12 C           3.4042   40.9118   11.8807 C.ar    1  UNL1        0.0844
     13 N           0.4827   43.1205   13.9009 N.am    1  UNL1       -0.2411
     14 O          -0.9678   43.4947   15.6873 O.2     1  UNL1       -0.2262
     15 S           3.2377   43.2509   10.9494 S.2     1  UNL1       -0.0745
     16 C           3.8972   39.6050   12.2368 C.1     1  UNL1        0.1019
     17 N           4.2938   38.5553   12.5206 N.1     1  UNL1       -0.1908
     18 O           0.5325   45.1759   15.2982 O.3     1  UNL1       -0.4345
     19 C           1.3382   45.4278   16.4430 C.3     1  UNL1        0.2102
     20 C           2.4853   46.3540   16.0838 C.3     1  UNL1        0.0513
     21 C           7.5792   41.5250    9.5327 C.ar    1  UNL1        0.0537
     22 C           8.8175   42.1129    9.8212 C.ar    1  UNL1        0.0046
     23 C           9.8471   42.0911    8.8767 C.ar    1  UNL1        0.0033
     24 C           9.6610   41.4755    7.6296 C.ar    1  UNL1        0.0390
     25 C           8.4152   40.8981    7.3413 C.ar    1  UNL1        0.0033
     26 C           7.3846   40.9187    8.2846 C.ar    1  UNL1        0.0046
     27 C          10.7631   41.4908    6.6347 C.2     1  UNL1        0.1955
     28 O          10.4694   41.3565    5.4142 O.2     1  UNL1       -0.2866
     29 C          12.1930   41.6559    7.0001 C.ar    1  UNL1        0.0390
     30 C          12.7601   40.8152    7.9713 C.ar    1  UNL1        0.0032
     31 C          14.1101   40.9325    8.3147 C.ar    1  UNL1        0.0001
     32 C          14.9105   41.8878    7.6843 C.ar    1  UNL1        0.0000
     33 C          14.3617   42.7232    6.7087 C.ar    1  UNL1        0.0001
     34 C          13.0116   42.6046    6.3665 C.ar    1  UNL1        0.0032
@<TRIPOS>BOND
     1     5     2    1
     2     5    15   ar
     3     1    21    1
     4    22    23   ar
     5    24    25   ar
     6    24    27    1
     7    26    21   ar
     8    27    29    1
     9    30    31   ar
    10    32    33   ar
    11    34    29   ar
    12     6    15   ar
    13     7    12   ar
    14     8     7    1
    15     8     9    1
    16     9    13    1
    17    10    18    1
    18    19    18    1
    19    19    20    1
    20    11    13    1
    21    11     6    1
    22    12    16    1
    23     2     1   am
    24    13    10   am
    25     1     3    2
    26    21    22   ar
    27    23    24   ar
    28    25    26   ar
    29    27    28    2
    30    29    30   ar
    31    31    32   ar
    32    33    34   ar
    33     6     7   ar
    34    10    14    2
    35    12     5   ar
    36    16    17    3
    37     2     4    1
@<TRIPOS>MOLECULE
MolPort-003-061-890 9347616 CSSS03437154845 LN01433103 MCULE-6650959518 PubChem-3622284 ZINC000009347616
 34 37 0 0 0
SMALL
GASTEIGER

@<TRIPOS>ATOM
      1 C           6.3009   41.5216   10.3247 C.2     1  UNL1        0.2499
      2 N           4.9118   41.3959    9.9973 N.am    1  UNL1       -0.2749
      3 O           6.6597   41.6450   11.5278 O.2     1  UNL1       -0.2698
      4 H           4.6868   41.0562    9.1011 H       1  UNL1        0.1557
      5 C           3.8240   41.7248   10.8693 C.ar    1  UNL1        0.0901
      6 C           2.0675   42.8917   12.1845 C.ar    1  UNL1        0.0253
      7 C           2.2718   41.5814   12.6011 C.ar    1  UNL1       -0.0055
      8 C           1.5562   41.0153   13.7960 C.3     1  UNL1        0.0489
      9 C           0.2605   41.7870   14.0625 C.3     1  UNL1        0.1018
     10 C           0.0995   44.0630   15.1083 C.2     1  UNL1        0.4051
     11 C           1.0377   43.8036   12.7726 C.3     1  UNL1        0.1296
     12 C           3.2822   40.9244   11.8818 C.ar    1  UNL1        0.0844
     13 N           0.5191   43.2279   14.0159 N.am    1  UNL1       -0.2411
     14 O          -0.8194   43.6664   15.8736 O.2     1  UNL1       -0.2262
     15 S           3.1009   43.2454   10.9090 S.2     1  UNL1       -0.0745
     16 C           3.7733   39.6170   12.2385 C.1     1  UNL1        0.1019
     17 N           4.1660   38.5670   12.5266 N.1     1  UNL1       -0.1908
     18 O           0.6835   45.3119   15.3612 O.3     1  UNL1       -0.4345
     19 C           1.3674   45.6404   16.5643 C.3     1  UNL1        0.2102
     20 C           2.6469   46.3939   16.2514 C.3     1  UNL1        0.0513
     21 C           7.3158   41.4530    9.2592 C.ar    1  UNL1        0.0537
     22 C           7.0575   40.7420    8.0801 C.ar    1  UNL1        0.0046
     23 C           8.0186   40.6801    7.0676 C.ar    1  UNL1        0.0033
     24 C           9.2523   41.3330    7.2112 C.ar    1  UNL1        0.0390
     25 C           9.5103   42.0343    8.3987 C.ar    1  UNL1        0.0033
     26 C           8.5505   42.0976    9.4121 C.ar    1  UNL1        0.0046
     27 C          10.2655   41.2279    6.1309 C.2     1  UNL1        0.1955
     28 O          11.2001   42.0762    6.1025 O.2     1  UNL1       -0.2866
     29 C          10.2372   40.1771    5.0820 C.ar    1  UNL1        0.0390
     30 C          11.3896   39.4132    4.8369 C.ar    1  UNL1        0.0032
     31 C          11.3817   38.4006    3.8733 C.ar    1  UNL1        0.0001
     32 C          10.2175   38.1353    3.1487 C.ar    1  UNL1        0.0000
     33 C           9.0611   38.8803    3.3901 C.ar    1  UNL1        0.0001
     34 C           9.0707   39.8925    4.3541 C.ar    1  UNL1        0.0032
@<TRIPOS>BOND
     1     5     2    1
     2     5    15   ar
     3     1    21    1
     4    22    23   ar
     5    24    25   ar
     6    24    27    1
     7    26    21   ar
     8    27    29    1
     9    30    31   ar
    10    32    33   ar
    11    34    29   ar
    12     6    15   ar
    13     7    12   ar
    14     8     7    1
    15     8     9    1
    16     9    13    1
    17    10    18    1
    18    19    18    1
    19    19    20    1
    20    11    13    1
    21    11     6    1
    22    12    16    1
    23     2     1   am
    24    13    10   am
    25     1     3    2
    26    21    22   ar
    27    23    24   ar
    28    25    26   ar
    29    27    28    2
    30    29    30   ar
    31    31    32   ar
    32    33    34   ar
    33     6     7   ar
    34    10    14    2
    35    12     5   ar
    36    16    17    3
    37     2     4    1
@<TRIPOS>MOLECULE
MolPort-003-061-890 9347616 CSSS03437154845 LN01433103 MCULE-6650959518 PubChem-3622284 ZINC000009347616
 34 37 0 0 0
SMALL
GASTEIGER

@<TRIPOS>ATOM
      1 C           9.1582   41.5781    7.8474 C.2     1  UNL1        0.2499
      2 N           8.2682   42.5098    8.4738 N.am    1  UNL1       -0.2749
      3 O           8.7895   40.3891    7.6427 O.2     1  UNL1       -0.2698
      4 H           8.4841   43.4669    8.3925 H       1  UNL1        0.1557
      5 C           7.0894   42.1606    9.2088 C.ar    1  UNL1        0.0901
      6 C           4.7821   42.0141   10.1207 C.ar    1  UNL1        0.0253
      7 C           5.7147   41.3430   10.9032 C.ar    1  UNL1       -0.0055
      8 C           5.3320   40.7055   12.2098 C.3     1  UNL1        0.0489
      9 C           3.8338   40.3894   12.2358 C.3     1  UNL1        0.1018
     10 C           1.9897   42.0591   12.5690 C.2     1  UNL1        0.4051
     11 C           3.3154   42.0465   10.4138 C.3     1  UNL1        0.1296
     12 C           7.0248   41.4449   10.4101 C.ar    1  UNL1        0.0844
     13 N           3.0707   41.5495   11.7699 N.am    1  UNL1       -0.2411
     14 O           1.4365   41.3067   13.4148 O.2     1  UNL1       -0.2262
     15 S           5.5508   42.7101    8.7999 S.2     1  UNL1       -0.0745
     16 C           8.1736   40.9630   11.1350 C.1     1  UNL1        0.1019
     17 N           9.0974   40.5778   11.7164 N.1     1  UNL1       -0.1908
     18 O           1.5264   43.3763   12.4465 O.3     1  UNL1       -0.4345
     19 C           0.6330   43.9932   13.3653 C.3     1  UNL1        0.2102
     20 C          -0.3242   42.9642   13.9377 C.3     1  UNL1        0.0513
     21 C          10.4869   42.0232    7.3931 C.ar    1  UNL1        0.0537
     22 C          11.3296   42.7335    8.2578 C.ar    1  UNL1        0.0046
     23 C          12.5915   43.1525    7.8284 C.ar    1  UNL1        0.0033
     24 C          13.0378   42.8635    6.5299 C.ar    1  UNL1        0.0390
     25 C          12.1856   42.1616    5.6641 C.ar    1  UNL1        0.0033
     26 C          10.9235   41.7417    6.0917 C.ar    1  UNL1        0.0046
     27 C          14.3724   43.3444    6.0911 C.2     1  UNL1        0.1955
     28 O          14.4619   43.9239    4.9732 O.2     1  UNL1       -0.2866
     29 C          15.6077   43.1792    6.8987 C.ar    1  UNL1        0.0390
     30 C          16.6503   44.1102    6.7661 C.ar    1  UNL1        0.0032
     31 C          17.8128   43.9924    7.5335 C.ar    1  UNL1        0.0001
     32 C          17.9421   42.9452    8.4486 C.ar    1  UNL1        0.0000
     33 C          16.9081   42.0184    8.5984 C.ar    1  UNL1        0.0001
     34 C          15.7464   42.1377    7.8302 C.ar    1  UNL1        0.0032
@<TRIPOS>BOND
     1     5     2    1
     2     5    15   ar
     3     1    21    1
     4    22    23   ar
     5    24    25   ar
     6    24    27    1
     7    26    21   ar
     8    27    29    1
     9    30    31   ar
    10    32    33   ar
    11    34    29   ar
    12     6    15   ar
    13     7    12   ar
    14     8     7    1
    15     8     9    1
    16     9    13    1
    17    10    18    1
    18    19    18    1
    19    19    20    1
    20    11    13    1
    21    11     6    1
    22    12    16    1
    23     2     1   am
    24    13    10   am
    25     1     3    2
    26    21    22   ar
    27    23    24   ar
    28    25    26   ar
    29    27    28    2
    30    29    30   ar
    31    31    32   ar
    32    33    34   ar
    33     6     7   ar
    34    10    14    2
    35    12     5   ar
    36    16    17    3
    37     2     4    1
@<TRIPOS>MOLECULE
MolPort-003-061-890 9347616 CSSS03437154845 LN01433103 MCULE-6650959518 PubChem-3622284 ZINC000009347616
 34 37 0 0 0
SMALL
GASTEIGER

@<TRIPOS>ATOM
      1 C           7.4074   41.9654   10.0628 C.2     1  UNL1        0.2499
      2 N           7.9846   40.7332    9.6145 N.am    1  UNL1       -0.2749
      3 O           8.1041   43.0167   10.0952 O.2     1  UNL1       -0.2698
      4 H           7.3670   40.0077    9.3664 H       1  UNL1        0.1557
      5 C           9.3882   40.4719    9.4981 C.ar    1  UNL1        0.0901
      6 C          11.6349   39.6909    8.7777 C.ar    1  UNL1        0.0253
      7 C          11.6308   40.2025   10.0702 C.ar    1  UNL1       -0.0055
      8 C          12.8595   40.1633   10.9356 C.3     1  UNL1        0.0489
      9 C          14.1221   40.0749   10.0735 C.3     1  UNL1        0.1018
     10 C          14.9497   38.0198    8.8937 C.2     1  UNL1        0.4051
     11 C          12.8621   39.1957    8.0800 C.3     1  UNL1        0.1296
     12 C          10.3597   40.6197   10.4949 C.ar    1  UNL1        0.0844
     13 N          13.9536   39.0452    9.0455 N.am    1  UNL1       -0.2411
     14 O          16.1175   38.2228    9.3206 O.2     1  UNL1       -0.2262
     15 S          10.0869   39.7762    8.1326 S.2     1  UNL1       -0.0745
     16 C          10.0843   41.0377   11.8466 C.1     1  UNL1        0.1019
     17 N           9.8627   41.3755   12.9312 N.1     1  UNL1       -0.1908
     18 O          14.6673   36.7876    8.2882 O.3     1  UNL1       -0.4345
     19 C          14.4589   35.5781    9.0071 C.3     1  UNL1        0.2102
     20 C          13.1703   35.6571    9.8045 C.3     1  UNL1        0.0513
     21 C           5.9833   42.0166   10.4360 C.ar    1  UNL1        0.0537
     22 C           5.4824   41.1720   11.4351 C.ar    1  UNL1        0.0046
     23 C           4.1323   41.2231   11.7919 C.ar    1  UNL1        0.0033
     24 C           3.2595   42.1236   11.1625 C.ar    1  UNL1        0.0390
     25 C           3.7638   42.9595   10.1548 C.ar    1  UNL1        0.0033
     26 C           5.1135   42.9100    9.7967 C.ar    1  UNL1        0.0046
     27 C           1.8242   42.1377   11.5425 C.2     1  UNL1        0.1955
     28 O           0.9738   41.7770   10.6820 O.2     1  UNL1       -0.2866
     29 C           1.3365   42.5539   12.8820 C.ar    1  UNL1        0.0390
     30 C           1.5766   43.8630   13.3294 C.ar    1  UNL1        0.0032
     31 C           1.1057   44.2880   14.5751 C.ar    1  UNL1        0.0001
     32 C           0.3820   43.4096   15.3847 C.ar    1  UNL1        0.0000
     33 C           0.1267   42.1080   14.9472 C.ar    1  UNL1        0.0001
     34 C           0.5983   41.6847   13.7012 C.ar    1  UNL1        0.0032
@<TRIPOS>BOND
     1     5     2    1
     2     5    15   ar
     3     1    21    1
     4    22    23   ar
     5    24    25   ar
     6    24    27    1
     7    26    21   ar
     8    27    29    1
     9    30    31   ar
    10    32    33   ar
    11    34    29   ar
    12     6    15   ar
    13     7    12   ar
    14     8     7    1
    15     8     9    1
    16     9    13    1
    17    10    18    1
    18    19    18    1
    19    19    20    1
    20    11    13    1
    21    11     6    1
    22    12    16    1
    23     2     1   am
    24    13    10   am
    25     1     3    2
    26    21    22   ar
    27    23    24   ar
    28    25    26   ar
    29    27    28    2
    30    29    30   ar
    31    31    32   ar
    32    33    34   ar
    33     6     7   ar
    34    10    14    2
    35    12     5   ar
    36    16    17    3
    37     2     4    1
@<TRIPOS>MOLECULE
MolPort-003-061-890 9347616 CSSS03437154845 LN01433103 MCULE-6650959518 PubChem-3622284 ZINC000009347616
 34 37 0 0 0
SMALL
GASTEIGER

@<TRIPOS>ATOM
      1 C           5.9661   41.3821    9.9584 C.2     1  UNL1        0.2499
      2 N           5.0301   42.4651    9.8977 N.am    1  UNL1       -0.2749
      3 O           5.6510   40.3037   10.5321 O.2     1  UNL1       -0.2698
      4 H           5.2057   43.1791    9.2430 H       1  UNL1        0.1557
      5 C           3.8593   42.5924   10.7132 C.ar    1  UNL1        0.0901
      6 C           2.2490   43.0526   12.5493 C.ar    1  UNL1        0.0253
      7 C           1.7166   42.2377   11.5569 C.ar    1  UNL1       -0.0055
      8 C           0.3442   41.6373   11.6843 C.3     1  UNL1        0.0489
      9 C          -0.5186   42.4656   12.6407 C.3     1  UNL1        0.1018
     10 C          -0.3425   42.4668   15.1445 C.2     1  UNL1        0.4051
     11 C           1.4811   43.5230   13.7440 C.3     1  UNL1        0.1296
     12 C           2.6293   41.9499   10.5302 C.ar    1  UNL1        0.0844
     13 N           0.2341   42.7632   13.8614 N.am    1  UNL1       -0.2411
     14 O          -1.5930   42.3556   15.2507 O.2     1  UNL1       -0.2262
     15 S           3.8323   43.4542   12.1600 S.2     1  UNL1       -0.0745
     16 C           2.3521   41.0034    9.4791 C.1     1  UNL1        0.1019
     17 N           2.1290   40.2417    8.6366 N.1     1  UNL1       -0.1908
     18 O           0.4414   42.2888   16.2928 O.3     1  UNL1       -0.4345
     19 C           0.5166   43.2292   17.3572 C.3     1  UNL1        0.2102
     20 C           1.9595   43.4218   17.7861 C.3     1  UNL1        0.0513
     21 C           7.2794   41.5087    9.3032 C.ar    1  UNL1        0.0537
     22 C           7.3751   41.5219    7.9057 C.ar    1  UNL1        0.0046
     23 C           8.6204   41.6458    7.2840 C.ar    1  UNL1        0.0033
     24 C           9.7920   41.7662    8.0466 C.ar    1  UNL1        0.0390
     25 C           9.6918   41.7412    9.4459 C.ar    1  UNL1        0.0033
     26 C           8.4475   41.6175   10.0693 C.ar    1  UNL1        0.0046
     27 C          11.1044   41.8693    7.3598 C.2     1  UNL1        0.1955
     28 O          11.1302   42.3293    6.1845 O.2     1  UNL1       -0.2866
     29 C          12.3885   41.4595    7.9832 C.ar    1  UNL1        0.0390
     30 C          13.5987   41.9230    7.4427 C.ar    1  UNL1        0.0032
     31 C          14.8200   41.5733    8.0262 C.ar    1  UNL1        0.0001
     32 C          14.8439   40.7615    9.1625 C.ar    1  UNL1        0.0000
     33 C          13.6469   40.3024    9.7167 C.ar    1  UNL1        0.0001
     34 C          12.4266   40.6531    9.1321 C.ar    1  UNL1        0.0032
@<TRIPOS>BOND
     1     5     2    1
     2     5    15   ar
     3     1    21    1
     4    22    23   ar
     5    24    25   ar
     6    24    27    1
     7    26    21   ar
     8    27    29    1
     9    30    31   ar
    10    32    33   ar
    11    34    29   ar
    12     6    15   ar
    13     7    12   ar
    14     8     7    1
    15     8     9    1
    16     9    13    1
    17    10    18    1
    18    19    18    1
    19    19    20    1
    20    11    13    1
    21    11     6    1
    22    12    16    1
    23     2     1   am
    24    13    10   am
    25     1     3    2
    26    21    22   ar
    27    23    24   ar
    28    25    26   ar
    29    27    28    2
    30    29    30   ar
    31    31    32   ar
    32    33    34   ar
    33     6     7   ar
    34    10    14    2
    35    12     5   ar
    36    16    17    3
    37     2     4    1
@<TRIPOS>MOLECULE
MolPort-003-061-890 9347616 CSSS03437154845 LN01433103 MCULE-6650959518 PubChem-3622284 ZINC000009347616
 34 37 0 0 0
SMALL
GASTEIGER

@<TRIPOS>ATOM
      1 C           5.9653   42.4065    9.4912 C.2     1  UNL1        0.2499
      2 N           6.5949   41.1947    9.0575 N.am    1  UNL1       -0.2749
      3 O           6.4564   43.5243    9.1738 O.2     1  UNL1       -0.2698
      4 H           6.0641   40.3669    9.1043 H       1  UNL1        0.1557
      5 C           7.9346   41.0911    8.5614 C.ar    1  UNL1        0.0901
      6 C          10.3754   40.7048    8.2970 C.ar    1  UNL1        0.0253
      7 C           9.8319   41.4509    7.2577 C.ar    1  UNL1       -0.0055
      8 C          10.6940   42.0304    6.1708 C.3     1  UNL1        0.0489
      9 C          12.0001   41.2412    6.0420 C.3     1  UNL1        0.1018
     10 C          13.9598   41.3865    7.6036 C.2     1  UNL1        0.4051
     11 C          11.8107   40.2882    8.3637 C.3     1  UNL1        0.1296
     12 C           8.4591   41.6976    7.4141 C.ar    1  UNL1        0.0844
     13 N          12.5877   41.0286    7.3667 N.am    1  UNL1       -0.2411
     14 O          14.7529   41.4788    6.6289 O.2     1  UNL1       -0.2262
     15 S           9.1710   40.3130    9.3996 S.2     1  UNL1       -0.0745
     16 C           7.7179   42.5769    6.5451 C.1     1  UNL1        0.1019
     17 N           7.1231   43.2816    5.8456 N.1     1  UNL1       -0.1908
     18 O          14.4532   41.6452    8.8897 O.3     1  UNL1       -0.4345
     19 C          15.2885   40.7513    9.6152 C.3     1  UNL1        0.2102
     20 C          16.7491   41.0694    9.3541 C.3     1  UNL1        0.0513
     21 C           4.7125   42.3476   10.2639 C.ar    1  UNL1        0.0537
     22 C           4.6718   41.6843   11.4971 C.ar    1  UNL1        0.0046
     23 C           3.4845   41.6316   12.2320 C.ar    1  UNL1        0.0033
     24 C           2.3181   42.2465   11.7522 C.ar    1  UNL1        0.0390
     25 C           2.3614   42.8999   10.5113 C.ar    1  UNL1        0.0033
     26 C           3.5476   42.9538    9.7750 C.ar    1  UNL1        0.0046
     27 C           1.0637   42.1517   12.5410 C.2     1  UNL1        0.1955
     28 O           0.1258   41.4372   12.0900 O.2     1  UNL1       -0.2866
     29 C           0.8547   42.8536   13.8329 C.ar    1  UNL1        0.0390
     30 C           1.1115   44.2313   13.9210 C.ar    1  UNL1        0.0032
     31 C           0.8980   44.9208   15.1181 C.ar    1  UNL1        0.0001
     32 C           0.4175   44.2407   16.2395 C.ar    1  UNL1        0.0000
     33 C           0.1476   42.8725   16.1625 C.ar    1  UNL1        0.0001
     34 C           0.3616   42.1846   14.9647 C.ar    1  UNL1        0.0032
@<TRIPOS>BOND
     1     5     2    1
     2     5    15   ar
     3     1    21    1
     4    22    23   ar
     5    24    25   ar
     6    24    27    1
     7    26    21   ar
     8    27    29    1
     9    30    31   ar
    10    32    33   ar
    11    34    29   ar
    12     6    15   ar
    13     7    12   ar
    14     8     7    1
    15     8     9    1
    16     9    13    1
    17    10    18    1
    18    19    18    1
    19    19    20    1
    20    11    13    1
    21    11     6    1
    22    12    16    1
    23     2     1   am
    24    13    10   am
    25     1     3    2
    26    21    22   ar
    27    23    24   ar
    28    25    26   ar
    29    27    28    2
    30    29    30   ar
    31    31    32   ar
    32    33    34   ar
    33     6     7   ar
    34    10    14    2
    35    12     5   ar
    36    16    17    3
    37     2     4    1
@<TRIPOS>MOLECULE
MolPort-003-061-890 9347616 CSSS03437154845 LN01433103 MCULE-6650959518 PubChem-3622284 ZINC000009347616
 34 37 0 0 0
SMALL
GASTEIGER

@<TRIPOS>ATOM
      1 C           6.0691   41.3194    9.8594 C.2     1  UNL1        0.2499
      2 N           7.3097   41.3091   10.5760 N.am    1  UNL1       -0.2749
      3 O           6.0457   41.0415    8.6291 O.2     1  UNL1       -0.2698
      4 H           7.2645   41.2820   11.5590 H       1  UNL1        0.1557
      5 C           8.6106   41.3352    9.9768 C.ar    1  UNL1        0.0901
      6 C          10.9021   40.7894    9.1846 C.ar    1  UNL1        0.0253
      7 C          10.6020   42.1424    9.0757 C.ar    1  UNL1       -0.0055
      8 C          11.6293   43.1420    8.6224 C.3     1  UNL1        0.0489
      9 C          12.7179   42.4557    7.7921 C.3     1  UNL1        0.1018
     10 C          14.5763   41.0345    8.7012 C.2     1  UNL1        0.4051
     11 C          12.1940   40.1825    8.7367 C.3     1  UNL1        0.1296
     12 C           9.3196   42.4632    9.5475 C.ar    1  UNL1        0.0844
     13 N          13.1721   41.2403    8.4716 N.am    1  UNL1       -0.2411
     14 O          15.4165   41.6445    7.9875 O.2     1  UNL1       -0.2262
     15 S           9.5858   39.9701    9.8295 S.2     1  UNL1       -0.0745
     16 C           8.8503   43.8198    9.6779 C.1     1  UNL1        0.1019
     17 N           8.4738   44.9091    9.7848 N.1     1  UNL1       -0.1908
     18 O          15.0519   40.1771    9.7029 O.3     1  UNL1       -0.4345
     19 C          14.2714   39.7346   10.8066 C.3     1  UNL1        0.2102
     20 C          14.4567   38.2430   11.0157 C.3     1  UNL1        0.0513
     21 C           4.8115   41.6026   10.5722 C.ar    1  UNL1        0.0537
     22 C           4.4034   40.7905   11.6382 C.ar    1  UNL1        0.0046
     23 C           3.2124   41.0613   12.3170 C.ar    1  UNL1        0.0033
     24 C           2.4109   42.1523   11.9482 C.ar    1  UNL1        0.0390
     25 C           2.8184   42.9559   10.8727 C.ar    1  UNL1        0.0033
     26 C           4.0091   42.6869   10.1929 C.ar    1  UNL1        0.0046
     27 C           1.1369   42.4007   12.6693 C.2     1  UNL1        0.1955
     28 O           0.0669   41.9634   12.1616 O.2     1  UNL1       -0.2866
     29 C           1.0554   43.1368   13.9565 C.ar    1  UNL1        0.0390
     30 C           0.6389   42.4608   15.1146 C.ar    1  UNL1        0.0032
     31 C           0.5785   43.1237   16.3438 C.ar    1  UNL1        0.0001
     32 C           0.9417   44.4696   16.4298 C.ar    1  UNL1        0.0000
     33 C           1.3680   45.1511   15.2876 C.ar    1  UNL1        0.0001
     34 C           1.4279   44.4867   14.0593 C.ar    1  UNL1        0.0032
@<TRIPOS>BOND
     1     5     2    1
     2     5    15   ar
     3     1    21    1
     4    22    23   ar
     5    24    25   ar
     6    24    27    1
     7    26    21   ar
     8    27    29    1
     9    30    31   ar
    10    32    33   ar
    11    34    29   ar
    12     6    15   ar
    13     7    12   ar
    14     8     7    1
    15     8     9    1
    16     9    13    1
    17    10    18    1
    18    19    18    1
    19    19    20    1
    20    11    13    1
    21    11     6    1
    22    12    16    1
    23     2     1   am
    24    13    10   am
    25     1     3    2
    26    21    22   ar
    27    23    24   ar
    28    25    26   ar
    29    27    28    2
    30    29    30   ar
    31    31    32   ar
    32    33    34   ar
    33     6     7   ar
    34    10    14    2
    35    12     5   ar
    36    16    17    3
    37     2     4    1
