@<TRIPOS>MOLECULE
MolPort-003-077-992 4328288 CSSS03437148118 MCULE-1950111006 PubChem-7191022 ZINC000004328288 ZINC04328288
 30 32 0 0 0
SMALL
GASTEIGER

@<TRIPOS>ATOM
      1 C          11.6888   41.6164    6.5095 C.ar    1  UNL1        0.1888
      2 C           9.3180   41.3772    6.2692 C.ar    1  UNL1        0.1611
      3 N          11.3239   41.1096    5.3122 N.ar    1  UNL1       -0.1248
      4 N          10.0057   40.9777    5.1780 N.ar    1  UNL1       -0.1331
      5 S          10.3435   41.9332    7.4815 S.2     1  UNL1       -0.0241
      6 C          13.8492   42.9902    6.5357 C.2     1  UNL1        0.2510
      7 O          13.3527   43.9421    5.8745 O.2     1  UNL1       -0.2698
      8 N          13.0601   41.8368    6.8603 N.am    1  UNL1       -0.2592
      9 H          13.5055   41.1259    7.3756 H       1  UNL1        0.1571
     10 F          17.5511   41.3299    9.2483 F       1  UNL1       -0.2042
     11 C          17.0804   42.2175    8.3401 C.ar    1  UNL1        0.1403
     12 C          17.9261   43.2020    7.8218 C.ar    1  UNL1        0.0296
     13 C          17.4404   44.1172    6.8841 C.ar    1  UNL1        0.0025
     14 C          16.1087   44.0479    6.4645 C.ar    1  UNL1        0.0047
     15 C          15.2526   43.0632    6.9793 C.ar    1  UNL1        0.0560
     16 C          15.7488   42.1482    7.9202 C.ar    1  UNL1        0.0342
     17 S           7.5332   41.3242    6.3875 S.3     1  UNL1       -0.0768
     18 C           7.4356   39.5168    6.1574 C.3     1  UNL1        0.1488
     19 C           8.6655   38.8423    6.6629 C.2     1  UNL1        0.2339
     20 O           9.2762   38.0284    5.9207 O.2     1  UNL1       -0.2741
     21 N           9.1233   39.0996    7.9898 N.am    1  UNL1       -0.3033
     22 H           8.6538   39.7715    8.5350 H       1  UNL1        0.1495
     23 C          10.2625   38.3990    8.5608 C.3     1  UNL1        0.0941
     24 C          10.9229   39.2709    9.6170 C.3     1  UNL1        0.0476
     25 C          12.0570   38.5481   10.2680 C.ar    1  UNL1       -0.0205
     26 C          12.1575   37.1536   10.1780 C.ar    1  UNL1       -0.0042
     27 C          13.2171   36.4860   10.7997 C.ar    1  UNL1       -0.0003
     28 C          14.1784   37.2101   11.5112 C.ar    1  UNL1       -0.0000
     29 C          14.0819   38.6023   11.5989 C.ar    1  UNL1       -0.0003
     30 C          13.0231   39.2707   10.9766 C.ar    1  UNL1       -0.0042
@<TRIPOS>BOND
     1    11    10    1
     2    12    13   ar
     3    14    15   ar
     4    15     6    1
     5    16    11   ar
     6     6     8   am
     7     1     5   ar
     8     2    17    1
     9     2     5   ar
    10    18    17    1
    11    18    19    1
    12    19    21   am
    13    23    21    1
    14    23    24    1
    15    24    25    1
    16    26    27   ar
    17    28    29   ar
    18    30    25   ar
    19     8     1    1
    20     3     4   ar
    21    11    12   ar
    22    13    14   ar
    23    15    16   ar
    24     6     7    2
    25     1     3   ar
    26     2     4   ar
    27    19    20    2
    28    25    26   ar
    29    27    28   ar
    30    29    30   ar
    31     8     9    1
    32    21    22    1
@<TRIPOS>MOLECULE
MolPort-003-077-992 4328288 CSSS03437148118 MCULE-1950111006 PubChem-7191022 ZINC000004328288 ZINC04328288
 30 32 0 0 0
SMALL
GASTEIGER

@<TRIPOS>ATOM
      1 C          11.4524   42.3971    8.0433 C.ar    1  UNL1        0.1888
      2 C           9.0970   42.6297    8.4088 C.ar    1  UNL1        0.1611
      3 N          10.7133   41.5316    7.3166 N.ar    1  UNL1       -0.1248
      4 N           9.4036   41.6616    7.5188 N.ar    1  UNL1       -0.1331
      5 S          10.4761   43.3931    8.9969 S.2     1  UNL1       -0.0241
      6 C          13.6788   43.0731    6.9747 C.2     1  UNL1        0.2510
      7 O          13.1316   43.6983    6.0264 O.2     1  UNL1       -0.2698
      8 N          12.8832   42.4237    7.9766 N.am    1  UNL1       -0.2592
      9 H          13.3690   41.9490    8.6893 H       1  UNL1        0.1571
     10 F          18.0939   44.2469    5.2577 F       1  UNL1       -0.2042
     11 C          17.3362   43.6073    6.1804 C.ar    1  UNL1        0.1403
     12 C          17.9484   42.8879    7.2102 C.ar    1  UNL1        0.0296
     13 C          17.1665   42.2288    8.1625 C.ar    1  UNL1        0.0025
     14 C          15.7720   42.2893    8.0851 C.ar    1  UNL1        0.0047
     15 C          15.1488   43.0090    7.0550 C.ar    1  UNL1        0.0560
     16 C          15.9417   43.6679    6.1033 C.ar    1  UNL1        0.0342
     17 S           7.4216   43.0425    8.8831 S.3     1  UNL1       -0.0768
     18 C           7.2501   41.6267   10.0212 C.3     1  UNL1        0.1488
     19 C           8.3868   41.5692   10.9845 C.2     1  UNL1        0.2339
     20 O           8.4158   42.3675   11.9582 O.2     1  UNL1       -0.2741
     21 N           9.4452   40.6340   10.7803 N.am    1  UNL1       -0.3033
     22 H           9.3785   39.9922   10.0368 H       1  UNL1        0.1495
     23 C          10.6193   40.6006   11.6376 C.3     1  UNL1        0.0941
     24 C          11.8770   40.5838   10.7830 C.3     1  UNL1        0.0476
     25 C          12.5732   39.2661   10.8900 C.ar    1  UNL1       -0.0205
     26 C          13.7647   39.1477   11.6174 C.ar    1  UNL1       -0.0042
     27 C          14.4137   37.9122   11.7026 C.ar    1  UNL1       -0.0003
     28 C          13.8733   36.7930   11.0622 C.ar    1  UNL1       -0.0000
     29 C          12.6822   36.9084   10.3390 C.ar    1  UNL1       -0.0003
     30 C          12.0321   38.1434   10.2542 C.ar    1  UNL1       -0.0042
@<TRIPOS>BOND
     1    11    10    1
     2    12    13   ar
     3    14    15   ar
     4    15     6    1
     5    16    11   ar
     6     6     8   am
     7     1     5   ar
     8     2    17    1
     9     2     5   ar
    10    18    17    1
    11    18    19    1
    12    19    21   am
    13    23    21    1
    14    23    24    1
    15    24    25    1
    16    26    27   ar
    17    28    29   ar
    18    30    25   ar
    19     8     1    1
    20     3     4   ar
    21    11    12   ar
    22    13    14   ar
    23    15    16   ar
    24     6     7    2
    25     1     3   ar
    26     2     4   ar
    27    19    20    2
    28    25    26   ar
    29    27    28   ar
    30    29    30   ar
    31     8     9    1
    32    21    22    1
@<TRIPOS>MOLECULE
MolPort-003-077-992 4328288 CSSS03437148118 MCULE-1950111006 PubChem-7191022 ZINC000004328288 ZINC04328288
 30 32 0 0 0
SMALL
GASTEIGER

@<TRIPOS>ATOM
      1 C           4.1559   42.1537   11.2942 C.ar    1  UNL1        0.1888
      2 C           5.6114   42.0651    9.3944 C.ar    1  UNL1        0.1611
      3 N           5.2391   41.3716   11.4900 N.ar    1  UNL1       -0.1248
      4 N           6.0491   41.3232   10.4342 N.ar    1  UNL1       -0.1331
      5 S           4.1617   42.8409    9.7507 S.2     1  UNL1       -0.0241
      6 C           1.7351   42.2731   12.1195 C.2     1  UNL1        0.2510
      7 O           1.2458   42.0312   10.9830 O.2     1  UNL1       -0.2698
      8 N           3.1564   42.3416   12.3031 N.am    1  UNL1       -0.2592
      9 H           3.4767   42.5373   13.2133 H       1  UNL1        0.1571
     10 F          -1.7063   40.6815   15.1923 F       1  UNL1       -0.2042
     11 C          -0.8750   41.6711   14.7875 C.ar    1  UNL1        0.1403
     12 C          -0.8652   42.8951   15.4618 C.ar    1  UNL1        0.0296
     13 C          -0.0068   43.9157   15.0445 C.ar    1  UNL1        0.0025
     14 C           0.8422   43.7123   13.9526 C.ar    1  UNL1        0.0047
     15 C           0.8392   42.4870   13.2698 C.ar    1  UNL1        0.0560
     16 C          -0.0258   41.4678   13.6958 C.ar    1  UNL1        0.0342
     17 S           6.4866   42.2022    7.8396 S.3     1  UNL1       -0.0768
     18 C           7.2580   40.5540    7.9723 C.3     1  UNL1        0.1488
     19 C           8.7430   40.6448    7.8729 C.2     1  UNL1        0.2339
     20 O           9.2791   40.8335    6.7491 O.2     1  UNL1       -0.2741
     21 N           9.5449   40.4875    9.0429 N.am    1  UNL1       -0.3033
     22 H           9.1010   40.3839    9.9156 H       1  UNL1        0.1495
     23 C          10.9978   40.4759    8.9848 C.3     1  UNL1        0.0941
     24 C          11.5671   40.5424   10.3932 C.3     1  UNL1        0.0476
     25 C          12.3964   39.3350   10.6876 C.ar    1  UNL1       -0.0205
     26 C          12.0353   38.0816   10.1762 C.ar    1  UNL1       -0.0042
     27 C          12.8126   36.9562   10.4663 C.ar    1  UNL1       -0.0003
     28 C          13.9521   37.0810   11.2667 C.ar    1  UNL1       -0.0000
     29 C          14.3162   38.3317   11.7748 C.ar    1  UNL1       -0.0003
     30 C          13.5399   39.4578   11.4843 C.ar    1  UNL1       -0.0042
@<TRIPOS>BOND
     1    11    10    1
     2    12    13   ar
     3    14    15   ar
     4    15     6    1
     5    16    11   ar
     6     6     8   am
     7     1     5   ar
     8     2    17    1
     9     2     5   ar
    10    18    17    1
    11    18    19    1
    12    19    21   am
    13    23    21    1
    14    23    24    1
    15    24    25    1
    16    26    27   ar
    17    28    29   ar
    18    30    25   ar
    19     8     1    1
    20     3     4   ar
    21    11    12   ar
    22    13    14   ar
    23    15    16   ar
    24     6     7    2
    25     1     3   ar
    26     2     4   ar
    27    19    20    2
    28    25    26   ar
    29    27    28   ar
    30    29    30   ar
    31     8     9    1
    32    21    22    1
@<TRIPOS>MOLECULE
MolPort-003-077-992 4328288 CSSS03437148118 MCULE-1950111006 PubChem-7191022 ZINC000004328288 ZINC04328288
 30 32 0 0 0
SMALL
GASTEIGER

@<TRIPOS>ATOM
      1 C          11.4090   40.9383    5.7376 C.ar    1  UNL1        0.1888
      2 C           9.5468   39.4569    6.0088 C.ar    1  UNL1        0.1611
      3 N          10.5846   40.9188    4.6683 N.ar    1  UNL1       -0.1248
      4 N           9.5485   40.0961    4.8194 N.ar    1  UNL1       -0.1331
      5 S          10.8649   39.9010    6.9553 S.2     1  UNL1       -0.0241
      6 C          13.3241   42.1251    6.9538 C.2     1  UNL1        0.2510
      7 O          12.9569   41.7325    8.0943 O.2     1  UNL1       -0.2698
      8 N          12.5854   41.7546    5.7810 N.am    1  UNL1       -0.2592
      9 H          12.9204   42.0953    4.9203 H       1  UNL1        0.1571
     10 F          17.9987   43.0771    7.9839 F       1  UNL1       -0.2042
     11 C          16.8522   43.4241    7.3519 C.ar    1  UNL1        0.1403
     12 C          16.8064   44.5848    6.5749 C.ar    1  UNL1        0.0296
     13 C          15.6236   44.9423    5.9222 C.ar    1  UNL1        0.0025
     14 C          14.4863   44.1388    6.0464 C.ar    1  UNL1        0.0047
     15 C          14.5231   42.9721    6.8242 C.ar    1  UNL1        0.0560
     16 C          15.7149   42.6207    7.4758 C.ar    1  UNL1        0.0342
     17 S           8.2819   38.2918    6.5036 S.3     1  UNL1       -0.0768
     18 C           6.9174   39.4906    6.3287 C.3     1  UNL1        0.1488
     19 C           7.2031   40.7455    7.0814 C.2     1  UNL1        0.2339
     20 O           7.4140   41.8139    6.4489 O.2     1  UNL1       -0.2741
     21 N           7.2654   40.7211    8.5070 N.am    1  UNL1       -0.3033
     22 H           7.0548   39.8836    8.9798 H       1  UNL1        0.1495
     23 C           7.6306   41.8960    9.2820 C.3     1  UNL1        0.0941
     24 C           7.4242   43.1473    8.4431 C.3     1  UNL1        0.0476
     25 C           5.9908   43.5686    8.4631 C.ar    1  UNL1       -0.0205
     26 C           5.0700   42.9201    9.2965 C.ar    1  UNL1       -0.0042
     27 C           3.7288   43.3153    9.2998 C.ar    1  UNL1       -0.0003
     28 C           3.3055   44.3592    8.4716 C.ar    1  UNL1       -0.0000
     29 C           4.2239   45.0100    7.6420 C.ar    1  UNL1       -0.0003
     30 C           5.5654   44.6160    7.6389 C.ar    1  UNL1       -0.0042
@<TRIPOS>BOND
     1    11    10    1
     2    12    13   ar
     3    14    15   ar
     4    15     6    1
     5    16    11   ar
     6     6     8   am
     7     1     5   ar
     8     2    17    1
     9     2     5   ar
    10    18    17    1
    11    18    19    1
    12    19    21   am
    13    23    21    1
    14    23    24    1
    15    24    25    1
    16    26    27   ar
    17    28    29   ar
    18    30    25   ar
    19     8     1    1
    20     3     4   ar
    21    11    12   ar
    22    13    14   ar
    23    15    16   ar
    24     6     7    2
    25     1     3   ar
    26     2     4   ar
    27    19    20    2
    28    25    26   ar
    29    27    28   ar
    30    29    30   ar
    31     8     9    1
    32    21    22    1
@<TRIPOS>MOLECULE
MolPort-003-077-992 4328288 CSSS03437148118 MCULE-1950111006 PubChem-7191022 ZINC000004328288 ZINC04328288
 30 32 0 0 0
SMALL
GASTEIGER

@<TRIPOS>ATOM
      1 C          11.2672   41.4165    6.0124 C.ar    1  UNL1        0.1888
      2 C           9.3159   40.0364    6.1654 C.ar    1  UNL1        0.1611
      3 N          10.3398   41.7004    5.0727 N.ar    1  UNL1       -0.1248
      4 N           9.2543   40.9339    5.1584 N.ar    1  UNL1       -0.1331
      5 S          10.7583   40.1611    7.0222 S.2     1  UNL1       -0.0241
      6 C          13.5990   41.8309    6.9850 C.2     1  UNL1        0.2510
      7 O          13.5210   40.8749    7.8034 O.2     1  UNL1       -0.2698
      8 N          12.5110   42.1223    6.0965 N.am    1  UNL1       -0.2592
      9 H          12.6310   42.8832    5.4834 H       1  UNL1        0.1571
     10 F          18.0748   42.9079    8.6057 F       1  UNL1       -0.2042
     11 C          17.0465   43.1725    7.7649 C.ar    1  UNL1        0.1403
     12 C          17.1430   44.2273    6.8533 C.ar    1  UNL1        0.0296
     13 C          16.0822   44.4997    5.9853 C.ar    1  UNL1        0.0025
     14 C          14.9248   43.7169    6.0288 C.ar    1  UNL1        0.0047
     15 C          14.8191   42.6561    6.9405 C.ar    1  UNL1        0.0560
     16 C          15.8891   42.3897    7.8081 C.ar    1  UNL1        0.0342
     17 S           8.0077   38.8723    6.5340 S.3     1  UNL1       -0.0768
     18 C           6.6782   40.1144    6.3964 C.3     1  UNL1        0.1488
     19 C           6.8203   41.1730    7.4368 C.2     1  UNL1        0.2339
     20 O           7.4103   40.9059    8.5170 O.2     1  UNL1       -0.2741
     21 N           6.2624   42.4676    7.2149 N.am    1  UNL1       -0.3033
     22 H           5.8437   42.6646    6.3459 H       1  UNL1        0.1495
     23 C           6.2936   43.5046    8.2338 C.3     1  UNL1        0.0941
     24 C           4.9051   43.6804    8.8283 C.3     1  UNL1        0.0476
     25 C           4.5262   42.4921    9.6509 C.ar    1  UNL1       -0.0205
     26 C           5.3254   42.0883   10.7285 C.ar    1  UNL1       -0.0042
     27 C           4.9673   40.9687   11.4855 C.ar    1  UNL1       -0.0003
     28 C           3.8100   40.2512   11.1680 C.ar    1  UNL1       -0.0000
     29 C           3.0091   40.6549   10.0954 C.ar    1  UNL1       -0.0003
     30 C           3.3661   41.7751    9.3385 C.ar    1  UNL1       -0.0042
@<TRIPOS>BOND
     1    11    10    1
     2    12    13   ar
     3    14    15   ar
     4    15     6    1
     5    16    11   ar
     6     6     8   am
     7     1     5   ar
     8     2    17    1
     9     2     5   ar
    10    18    17    1
    11    18    19    1
    12    19    21   am
    13    23    21    1
    14    23    24    1
    15    24    25    1
    16    26    27   ar
    17    28    29   ar
    18    30    25   ar
    19     8     1    1
    20     3     4   ar
    21    11    12   ar
    22    13    14   ar
    23    15    16   ar
    24     6     7    2
    25     1     3   ar
    26     2     4   ar
    27    19    20    2
    28    25    26   ar
    29    27    28   ar
    30    29    30   ar
    31     8     9    1
    32    21    22    1
@<TRIPOS>MOLECULE
MolPort-003-077-992 4328288 CSSS03437148118 MCULE-1950111006 PubChem-7191022 ZINC000004328288 ZINC04328288
 30 32 0 0 0
SMALL
GASTEIGER

@<TRIPOS>ATOM
      1 C           9.5955   41.1851    9.1706 C.ar    1  UNL1        0.1888
      2 C          11.9732   40.9588    8.9936 C.ar    1  UNL1        0.1611
      3 N          10.1095   41.8036    8.0858 N.ar    1  UNL1       -0.1248
      4 N          11.4313   41.6768    7.9865 N.ar    1  UNL1       -0.1331
      5 S          10.8026   40.4292   10.0797 S.2     1  UNL1       -0.0241
      6 C           7.2670   42.2494    9.1532 C.2     1  UNL1        0.2510
      7 O           7.6550   43.2933    8.5620 O.2     1  UNL1       -0.2698
      8 N           8.1940   41.2004    9.4668 N.am    1  UNL1       -0.2592
      9 H           7.8308   40.4124    9.9320 H       1  UNL1        0.1571
     10 F           3.6784   39.8277   11.4064 F       1  UNL1       -0.2042
     11 C           4.0787   40.8813   10.6554 C.ar    1  UNL1        0.1403
     12 C           3.1465   41.8336   10.2344 C.ar    1  UNL1        0.0296
     13 C           3.5599   42.9211    9.4602 C.ar    1  UNL1        0.0025
     14 C           4.9057   43.0564    9.1071 C.ar    1  UNL1        0.0047
     15 C           5.8483   42.1055    9.5251 C.ar    1  UNL1        0.0560
     16 C           5.4245   41.0169   10.3023 C.ar    1  UNL1        0.0342
     17 S          13.7237   40.6143    9.1319 S.3     1  UNL1       -0.0768
     18 C          13.5742   39.8028   10.7593 C.3     1  UNL1        0.1488
     19 C          14.8799   39.2329   11.1990 C.2     1  UNL1        0.2339
     20 O          14.9629   38.6648   12.3199 O.2     1  UNL1       -0.2741
     21 N          16.0295   39.3613   10.3631 N.am    1  UNL1       -0.3033
     22 H          15.9296   39.7713    9.4736 H       1  UNL1        0.1495
     23 C          17.3438   38.9049   10.7858 C.3     1  UNL1        0.0941
     24 C          17.3380   37.3912   10.9305 C.3     1  UNL1        0.0476
     25 C          17.4742   36.7305    9.5973 C.ar    1  UNL1       -0.0205
     26 C          18.7384   36.5346    9.0259 C.ar    1  UNL1       -0.0042
     27 C          18.8541   35.9247    7.7731 C.ar    1  UNL1       -0.0003
     28 C          17.7076   35.5089    7.0895 C.ar    1  UNL1       -0.0000
     29 C          16.4453   35.7001    7.6598 C.ar    1  UNL1       -0.0003
     30 C          16.3290   36.3091    8.9131 C.ar    1  UNL1       -0.0042
@<TRIPOS>BOND
     1    11    10    1
     2    12    13   ar
     3    14    15   ar
     4    15     6    1
     5    16    11   ar
     6     6     8   am
     7     1     5   ar
     8     2    17    1
     9     2     5   ar
    10    18    17    1
    11    18    19    1
    12    19    21   am
    13    23    21    1
    14    23    24    1
    15    24    25    1
    16    26    27   ar
    17    28    29   ar
    18    30    25   ar
    19     8     1    1
    20     3     4   ar
    21    11    12   ar
    22    13    14   ar
    23    15    16   ar
    24     6     7    2
    25     1     3   ar
    26     2     4   ar
    27    19    20    2
    28    25    26   ar
    29    27    28   ar
    30    29    30   ar
    31     8     9    1
    32    21    22    1
@<TRIPOS>MOLECULE
MolPort-003-077-992 4328288 CSSS03437148118 MCULE-1950111006 PubChem-7191022 ZINC000004328288 ZINC04328288
 30 32 0 0 0
SMALL
GASTEIGER

@<TRIPOS>ATOM
      1 C           7.1506   40.3894    6.5800 C.ar    1  UNL1        0.1888
      2 C           9.0943   40.0837    5.2146 C.ar    1  UNL1        0.1611
      3 N           7.0383   39.3557    5.7185 N.ar    1  UNL1       -0.1248
      4 N           8.1194   39.1848    4.9601 N.ar    1  UNL1       -0.1331
      5 S           8.6481   41.1575    6.4305 S.2     1  UNL1       -0.0241
      6 C           6.2559   41.1941    8.8400 C.2     1  UNL1        0.2510
      7 O           7.4030   41.3024    9.3519 O.2     1  UNL1       -0.2698
      8 N           6.0999   40.7474    7.4855 N.am    1  UNL1       -0.2592
      9 H           5.1788   40.6803    7.1444 H       1  UNL1        0.1571
     10 F           3.3052   40.3694   12.6389 F       1  UNL1       -0.2042
     11 C           3.6105   41.0985   11.5392 C.ar    1  UNL1        0.1403
     12 C           2.7967   42.1708   11.1637 C.ar    1  UNL1        0.0296
     13 C           3.1123   42.9236   10.0295 C.ar    1  UNL1        0.0025
     14 C           4.2421   42.6041    9.2706 C.ar    1  UNL1        0.0047
     15 C           5.0646   41.5296    9.6399 C.ar    1  UNL1        0.0560
     16 C           4.7403   40.7794   10.7803 C.ar    1  UNL1        0.0342
     17 S          10.6662   40.1064    4.3596 S.3     1  UNL1       -0.0768
     18 C          11.6314   39.6464    5.8381 C.3     1  UNL1        0.1488
     19 C          12.1553   40.8549    6.5369 C.2     1  UNL1        0.2339
     20 O          12.1185   40.9090    7.7946 O.2     1  UNL1       -0.2741
     21 N          12.6649   41.9504    5.7775 N.am    1  UNL1       -0.3033
     22 H          12.7226   41.8667    4.7982 H       1  UNL1        0.1495
     23 C          13.1015   43.1865    6.4066 C.3     1  UNL1        0.0941
     24 C          14.4212   43.6329    5.7972 C.3     1  UNL1        0.0476
     25 C          15.5536   43.3749    6.7371 C.ar    1  UNL1       -0.0205
     26 C          15.5305   42.2647    7.5914 C.ar    1  UNL1       -0.0042
     27 C          16.5905   42.0382    8.4746 C.ar    1  UNL1       -0.0003
     28 C          17.6755   42.9195    8.5051 C.ar    1  UNL1       -0.0000
     29 C          17.7021   44.0259    7.6505 C.ar    1  UNL1       -0.0003
     30 C          16.6428   44.2525    6.7664 C.ar    1  UNL1       -0.0042
@<TRIPOS>BOND
     1    11    10    1
     2    12    13   ar
     3    14    15   ar
     4    15     6    1
     5    16    11   ar
     6     6     8   am
     7     1     5   ar
     8     2    17    1
     9     2     5   ar
    10    18    17    1
    11    18    19    1
    12    19    21   am
    13    23    21    1
    14    23    24    1
    15    24    25    1
    16    26    27   ar
    17    28    29   ar
    18    30    25   ar
    19     8     1    1
    20     3     4   ar
    21    11    12   ar
    22    13    14   ar
    23    15    16   ar
    24     6     7    2
    25     1     3   ar
    26     2     4   ar
    27    19    20    2
    28    25    26   ar
    29    27    28   ar
    30    29    30   ar
    31     8     9    1
    32    21    22    1
@<TRIPOS>MOLECULE
MolPort-003-077-992 4328288 CSSS03437148118 MCULE-1950111006 PubChem-7191022 ZINC000004328288 ZINC04328288
 30 32 0 0 0
SMALL
GASTEIGER

@<TRIPOS>ATOM
      1 C          11.6076   40.6732    6.3442 C.ar    1  UNL1        0.1888
      2 C           9.3302   39.9455    6.2034 C.ar    1  UNL1        0.1611
      3 N          10.9996   41.0468    5.1978 N.ar    1  UNL1       -0.1248
      4 N           9.7331   40.6433    5.1198 N.ar    1  UNL1       -0.1331
      5 S          10.5607   39.7988    7.3413 S.2     1  UNL1       -0.0241
      6 C          13.4367   42.1007    7.4268 C.2     1  UNL1        0.2510
      7 O          12.6181   42.8979    7.9598 O.2     1  UNL1       -0.2698
      8 N          12.9724   41.0030    6.6282 N.am    1  UNL1       -0.2592
      9 H          13.6605   40.4180    6.2363 H       1  UNL1        0.1571
     10 F          17.6012   44.4253    6.3915 F       1  UNL1       -0.2042
     11 C          16.9444   43.4711    7.0932 C.ar    1  UNL1        0.1403
     12 C          17.6382   42.6745    8.0081 C.ar    1  UNL1        0.0296
     13 C          16.9601   41.6906    8.7327 C.ar    1  UNL1        0.0025
     14 C          15.5879   41.5033    8.5423 C.ar    1  UNL1        0.0047
     15 C          14.8833   42.2982    7.6261 C.ar    1  UNL1        0.0560
     16 C          15.5721   43.2838    6.9032 C.ar    1  UNL1        0.0342
     17 S           7.6813   39.2763    6.3918 S.3     1  UNL1       -0.0768
     18 C           6.8726   40.9118    6.4117 C.3     1  UNL1        0.1488
     19 C           7.2653   41.6922    7.6200 C.2     1  UNL1        0.2339
     20 O           7.5640   42.9100    7.5020 O.2     1  UNL1       -0.2741
     21 N           7.3290   41.0488    8.8923 N.am    1  UNL1       -0.3033
     22 H           7.0496   40.1077    8.9659 H       1  UNL1        0.1495
     23 C           7.7941   41.7417   10.0831 C.3     1  UNL1        0.0941
     24 C           6.7865   41.5604   11.2074 C.3     1  UNL1        0.0476
     25 C           5.3895   41.6010   10.6790 C.ar    1  UNL1       -0.0205
     26 C           4.9188   42.7313    9.9980 C.ar    1  UNL1       -0.0042
     27 C           3.6064   42.7631    9.5167 C.ar    1  UNL1       -0.0003
     28 C           2.7626   41.6660    9.7141 C.ar    1  UNL1       -0.0000
     29 C           3.2318   40.5356   10.3902 C.ar    1  UNL1       -0.0003
     30 C           4.5444   40.5026   10.8709 C.ar    1  UNL1       -0.0042
@<TRIPOS>BOND
     1    11    10    1
     2    12    13   ar
     3    14    15   ar
     4    15     6    1
     5    16    11   ar
     6     6     8   am
     7     1     5   ar
     8     2    17    1
     9     2     5   ar
    10    18    17    1
    11    18    19    1
    12    19    21   am
    13    23    21    1
    14    23    24    1
    15    24    25    1
    16    26    27   ar
    17    28    29   ar
    18    30    25   ar
    19     8     1    1
    20     3     4   ar
    21    11    12   ar
    22    13    14   ar
    23    15    16   ar
    24     6     7    2
    25     1     3   ar
    26     2     4   ar
    27    19    20    2
    28    25    26   ar
    29    27    28   ar
    30    29    30   ar
    31     8     9    1
    32    21    22    1
@<TRIPOS>MOLECULE
MolPort-003-077-992 4328288 CSSS03437148118 MCULE-1950111006 PubChem-7191022 ZINC000004328288 ZINC04328288
 30 32 0 0 0
SMALL
GASTEIGER

@<TRIPOS>ATOM
      1 C          11.5413   40.9863    6.8116 C.ar    1  UNL1        0.1888
      2 C           9.2918   40.3024    6.3556 C.ar    1  UNL1        0.1611
      3 N          10.8901   41.8230    5.9753 N.ar    1  UNL1       -0.1248
      4 N           9.6390   41.4435    5.7226 N.ar    1  UNL1       -0.1331
      5 S          10.5556   39.6994    7.2881 S.2     1  UNL1       -0.0241
      6 C          13.7135   42.3403    6.8728 C.2     1  UNL1        0.2510
      7 O          13.2561   43.2675    6.1511 O.2     1  UNL1       -0.2698
      8 N          12.8987   41.2090    7.2116 N.am    1  UNL1       -0.2592
      9 H          13.3139   40.5168    7.7752 H       1  UNL1        0.1571
     10 F          18.1433   44.3883    6.8428 F       1  UNL1       -0.2042
     11 C          17.2954   43.4563    7.3394 C.ar    1  UNL1        0.1403
     12 C          17.7321   42.5702    8.3279 C.ar    1  UNL1        0.0296
     13 C          16.8568   41.6092    8.8408 C.ar    1  UNL1        0.0025
     14 C          15.5444   41.5342    8.3651 C.ar    1  UNL1        0.0047
     15 C          15.0973   42.4194    7.3730 C.ar    1  UNL1        0.0560
     16 C          15.9829   43.3813    6.8640 C.ar    1  UNL1        0.0342
     17 S           7.6761   39.5461    6.2155 S.3     1  UNL1       -0.0768
     18 C           6.7873   41.1377    6.1396 C.3     1  UNL1        0.1488
     19 C           6.7311   41.7877    7.4804 C.2     1  UNL1        0.2339
     20 O           6.1759   41.1872    8.4381 O.2     1  UNL1       -0.2741
     21 N           7.2778   43.0935    7.6611 N.am    1  UNL1       -0.3033
     22 H           7.7442   43.5242    6.9086 H       1  UNL1        0.1495
     23 C           7.1666   43.8069    8.9233 C.3     1  UNL1        0.0941
     24 C           8.5496   44.2208    9.4010 C.3     1  UNL1        0.0476
     25 C           9.2231   43.0943   10.1151 C.ar    1  UNL1       -0.0205
     26 C           8.5534   42.3893   11.1237 C.ar    1  UNL1       -0.0042
     27 C           9.1965   41.3435   11.7928 C.ar    1  UNL1       -0.0003
     28 C          10.5089   40.9998   11.4551 C.ar    1  UNL1       -0.0000
     29 C          11.1776   41.6998   10.4461 C.ar    1  UNL1       -0.0003
     30 C          10.5347   42.7451    9.7758 C.ar    1  UNL1       -0.0042
@<TRIPOS>BOND
     1    11    10    1
     2    12    13   ar
     3    14    15   ar
     4    15     6    1
     5    16    11   ar
     6     6     8   am
     7     1     5   ar
     8     2    17    1
     9     2     5   ar
    10    18    17    1
    11    18    19    1
    12    19    21   am
    13    23    21    1
    14    23    24    1
    15    24    25    1
    16    26    27   ar
    17    28    29   ar
    18    30    25   ar
    19     8     1    1
    20     3     4   ar
    21    11    12   ar
    22    13    14   ar
    23    15    16   ar
    24     6     7    2
    25     1     3   ar
    26     2     4   ar
    27    19    20    2
    28    25    26   ar
    29    27    28   ar
    30    29    30   ar
    31     8     9    1
    32    21    22    1
@<TRIPOS>MOLECULE
MolPort-003-077-992 4328288 CSSS03437148118 MCULE-1950111006 PubChem-7191022 ZINC000004328288 ZINC04328288
 30 32 0 0 0
SMALL
GASTEIGER

@<TRIPOS>ATOM
      1 C          11.5354   42.2436    7.5720 C.ar    1  UNL1        0.1888
      2 C           9.2677   41.5056    7.3521 C.ar    1  UNL1        0.1611
      3 N          10.8737   42.2001    8.7483 N.ar    1  UNL1       -0.1248
      4 N           9.6132   41.7886    8.6264 N.ar    1  UNL1       -0.1331
      5 S          10.5488   41.7548    6.2905 S.2     1  UNL1       -0.0241
      6 C          14.0600   41.8617    7.7617 C.2     1  UNL1        0.2510
      7 O          13.9369   40.6646    8.1379 O.2     1  UNL1       -0.2698
      8 N          12.9027   42.6611    7.4791 N.am    1  UNL1       -0.2592
      9 H          13.0642   43.5891    7.1928 H       1  UNL1        0.1571
     10 F          17.1049   45.0692    5.6978 F       1  UNL1       -0.2042
     11 C          16.9012   44.0519    6.5684 C.ar    1  UNL1        0.1403
     12 C          17.9662   43.5562    7.3253 C.ar    1  UNL1        0.0296
     13 C          17.7556   42.5071    8.2242 C.ar    1  UNL1        0.0025
     14 C          16.4797   41.9537    8.3663 C.ar    1  UNL1        0.0047
     15 C          15.4049   42.4449    7.6106 C.ar    1  UNL1        0.0560
     16 C          15.6253   43.4986    6.7108 C.ar    1  UNL1        0.0342
     17 S           7.6436   40.9267    6.8731 S.3     1  UNL1       -0.0768
     18 C           8.2746   39.4417    6.0212 C.3     1  UNL1        0.1488
     19 C           8.8463   38.4656    6.9926 C.2     1  UNL1        0.2339
     20 O           8.5354   37.2483    6.9046 O.2     1  UNL1       -0.2741
     21 N           9.7146   38.9202    8.0299 N.am    1  UNL1       -0.3033
     22 H           9.9765   39.8690    8.0517 H       1  UNL1        0.1495
     23 C          10.2242   38.0241    9.0555 C.3     1  UNL1        0.0941
     24 C          11.6168   38.4666    9.4761 C.3     1  UNL1        0.0476
     25 C          12.5790   37.3256    9.4074 C.ar    1  UNL1       -0.0205
     26 C          12.3142   36.1293   10.0868 C.ar    1  UNL1       -0.0042
     27 C          13.2263   35.0714   10.0244 C.ar    1  UNL1       -0.0003
     28 C          14.4037   35.2064    9.2826 C.ar    1  UNL1       -0.0000
     29 C          14.6679   36.3981    8.6007 C.ar    1  UNL1       -0.0003
     30 C          13.7558   37.4561    8.6619 C.ar    1  UNL1       -0.0042
@<TRIPOS>BOND
     1    11    10    1
     2    12    13   ar
     3    14    15   ar
     4    15     6    1
     5    16    11   ar
     6     6     8   am
     7     1     5   ar
     8     2    17    1
     9     2     5   ar
    10    18    17    1
    11    18    19    1
    12    19    21   am
    13    23    21    1
    14    23    24    1
    15    24    25    1
    16    26    27   ar
    17    28    29   ar
    18    30    25   ar
    19     8     1    1
    20     3     4   ar
    21    11    12   ar
    22    13    14   ar
    23    15    16   ar
    24     6     7    2
    25     1     3   ar
    26     2     4   ar
    27    19    20    2
    28    25    26   ar
    29    27    28   ar
    30    29    30   ar
    31     8     9    1
    32    21    22    1
