@<TRIPOS>MOLECULE
Molport-051-996-551 MCULE-9800697149 PubChem-118351748 PubChem-129158233 PubChem-145420292 PubChem-157092727 PubChem-157831666 PubChem-158370418 PubChem-159068665 PubChem-159124835 PubChem-160433104 PubChem-165060170 PubChem-165086823
 27 27 0 0 0
SMALL
GASTEIGER

@<TRIPOS>ATOM
      1 C          11.9471   42.0103    7.6301 C.ar    1  UNL1        0.0935
      2 C          11.4449   42.4571    8.8590 C.ar    1  UNL1        0.0944
      3 C          10.0699   42.4538    9.1330 C.ar    1  UNL1        0.3044
      4 C           9.1699   42.0138    8.1331 C.ar    1  UNL1        0.1214
      5 C           9.6806   41.5475    6.9149 C.ar    1  UNL1        0.0589
      6 C          11.0580   41.5368    6.6564 C.ar    1  UNL1        0.1538
      7 C          14.0880   42.9956    6.6104 C.2     1  UNL1        0.4052
      8 O          13.5028   43.9965    6.1132 O.2     1  UNL1       -0.2261
      9 N          13.3560   42.0108    7.3510 N.am    1  UNL1       -0.2470
     10 H          13.8746   41.2533    7.7067 H       1  UNL1        0.1583
     11 O          15.4694   42.8254    6.4473 O.3     1  UNL1       -0.4417
     12 C          16.9020   43.9806    7.9754 C.3     1  UNL1        0.0437
     13 C          16.4345   43.8763    6.5392 C.3     1  UNL1        0.1378
     14 C          17.6388   43.5785    5.6626 C.3     1  UNL1        0.0437
     15 C          15.8211   45.2062    6.1362 C.3     1  UNL1        0.0437
     16 O           9.7304   44.0257   10.8152 O.2     1  UNL1        0.0415
     17 O           9.2847   41.8817   11.3716 O.co2   1  UNL1       -0.5760
     18 N           9.6215   42.8390   10.4424 N.pl3   1  UNL1        0.0823
     19 C          10.8182   40.2133    4.5770 C.3     1  UNL1        0.2525
     20 O          11.5597   41.0685    5.4365 O.3     1  UNL1       -0.4701
     21 C           6.9267   40.8896    8.1666 C.3     1  UNL1        0.1124
     22 N           7.7457   42.0860    8.3079 N.pl3   1  UNL1       -0.2995
     23 C           7.1210   43.3229    8.7665 C.3     1  UNL1        0.1083
     24 C           5.9464   43.7121    7.8746 C.3     1  UNL1        0.0938
     25 C           4.2076   43.1884    9.3349 C.3     1  UNL1        0.0897
     26 C           3.9104   44.8518    7.7343 C.3     1  UNL1        0.0897
     27 N           4.8729   44.2909    8.6660 N.3     1  UNL1       -0.2688
@<TRIPOS>UNITY_ATOM_ATTR
17 1
charge -1
18 1
charge 1
@<TRIPOS>BOND
     1    12    13    1
     2    13    14    1
     3    13    15    1
     4    13    11    1
     5     7    11    1
     6     7     9   am
     7     2     3   ar
     8     3    18    1
     9     4     5   ar
    10     4    22    1
    11     6    20    1
    12     6     1   ar
    13    19    20    1
    14    21    22    1
    15    23    22    1
    16    23    24    1
    17    24    27    1
    18    25    27    1
    19    26    27    1
    20     9     1    1
    21    18    17    1
    22     7     8    2
    23     1     2   ar
    24     3     4   ar
    25     5     6   ar
    26    18    16    2
    27     9    10    1
@<TRIPOS>MOLECULE
Molport-051-996-551 MCULE-9800697149 PubChem-118351748 PubChem-129158233 PubChem-145420292 PubChem-157092727 PubChem-157831666 PubChem-158370418 PubChem-159068665 PubChem-159124835 PubChem-160433104 PubChem-165060170 PubChem-165086823
 27 27 0 0 0
SMALL
GASTEIGER

@<TRIPOS>ATOM
      1 C           3.8383   42.0518   10.8680 C.ar    1  UNL1        0.0935
      2 C           4.9042   41.5633   11.6345 C.ar    1  UNL1        0.0944
      3 C           6.2364   41.7547   11.2422 C.ar    1  UNL1        0.3044
      4 C           6.5062   42.4336   10.0299 C.ar    1  UNL1        0.1214
      5 C           5.4364   42.9387    9.2799 C.ar    1  UNL1        0.0589
      6 C           4.1081   42.7591    9.6892 C.ar    1  UNL1        0.1538
      7 C           1.7416   42.6285   12.2338 C.2     1  UNL1        0.4052
      8 O           2.2858   43.5931   12.8378 O.2     1  UNL1       -0.2261
      9 N           2.4737   41.8582   11.2721 N.am    1  UNL1       -0.2470
     10 H           1.9891   41.1169   10.8422 H       1  UNL1        0.1583
     11 O           0.4068   42.2889   12.4926 O.3     1  UNL1       -0.4417
     12 C          -0.8390   43.8306   13.8317 C.3     1  UNL1        0.0437
     13 C          -0.2402   42.4420   13.7583 C.3     1  UNL1        0.1378
     14 C          -1.3598   41.4275   13.9159 C.3     1  UNL1        0.0437
     15 C           0.7569   42.2884   14.8939 C.3     1  UNL1        0.0437
     16 O           7.3793   40.1016   12.4158 O.2     1  UNL1        0.0415
     17 O           8.0561   42.2228   12.7994 O.co2   1  UNL1       -0.5760
     18 N           7.2882   41.3097   12.1139 N.pl3   1  UNL1        0.0823
     19 C           3.1320   44.4850    8.2054 C.3     1  UNL1        0.2525
     20 O           3.0451   43.2678    8.9340 O.3     1  UNL1       -0.4701
     21 C           8.3894   43.8890    9.2348 C.3     1  UNL1        0.1124
     22 N           7.8409   42.5690    9.5158 N.pl3   1  UNL1       -0.2995
     23 C           8.7096   41.4015    9.4034 C.3     1  UNL1        0.1083
     24 C          10.1803   41.7969    9.4899 C.3     1  UNL1        0.0938
     25 C          10.9635   41.8365    7.2956 C.3     1  UNL1        0.0897
     26 C          10.2442   39.8295    8.2294 C.3     1  UNL1        0.0897
     27 N          10.9675   41.0553    8.5184 N.3     1  UNL1       -0.2688
@<TRIPOS>UNITY_ATOM_ATTR
17 1
charge -1
18 1
charge 1
@<TRIPOS>BOND
     1    12    13    1
     2    13    14    1
     3    13    15    1
     4    13    11    1
     5     7    11    1
     6     7     9   am
     7     2     3   ar
     8     3    18    1
     9     4     5   ar
    10     4    22    1
    11     6    20    1
    12     6     1   ar
    13    19    20    1
    14    21    22    1
    15    23    22    1
    16    23    24    1
    17    24    27    1
    18    25    27    1
    19    26    27    1
    20     9     1    1
    21    18    17    1
    22     7     8    2
    23     1     2   ar
    24     3     4   ar
    25     5     6   ar
    26    18    16    2
    27     9    10    1
@<TRIPOS>MOLECULE
Molport-051-996-551 MCULE-9800697149 PubChem-118351748 PubChem-129158233 PubChem-145420292 PubChem-157092727 PubChem-157831666 PubChem-158370418 PubChem-159068665 PubChem-159124835 PubChem-160433104 PubChem-165060170 PubChem-165086823
 27 27 0 0 0
SMALL
GASTEIGER

@<TRIPOS>ATOM
      1 C           3.8265   42.6412   10.2564 C.ar    1  UNL1        0.0935
      2 C           4.9035   41.9946   10.8761 C.ar    1  UNL1        0.0944
      3 C           6.2184   42.1603   10.4190 C.ar    1  UNL1        0.3044
      4 C           6.4563   42.9787    9.2890 C.ar    1  UNL1        0.1214
      5 C           5.3775   43.6399    8.6880 C.ar    1  UNL1        0.0589
      6 C           4.0683   43.4833    9.1632 C.ar    1  UNL1        0.1538
      7 C           2.0672   42.1353   12.0572 C.2     1  UNL1        0.4052
      8 O           2.9183   41.9423   12.9680 O.2     1  UNL1       -0.2261
      9 N           2.4799   42.4737   10.7271 N.am    1  UNL1       -0.2470
     10 H           1.7634   42.6054   10.0649 H       1  UNL1        0.1583
     11 O           0.6969   42.0214   12.3281 O.3     1  UNL1       -0.4417
     12 C          -1.4447   42.3408   13.3448 C.3     1  UNL1        0.0437
     13 C           0.0448   42.5814   13.4706 C.3     1  UNL1        0.1378
     14 C           0.5322   41.9175   14.7470 C.3     1  UNL1        0.0437
     15 C           0.2845   44.0795   13.5459 C.3     1  UNL1        0.0437
     16 O           7.4335   41.7799   12.3672 O.2     1  UNL1        0.0415
     17 O           8.2939   40.8783   10.4826 O.co2   1  UNL1       -0.5760
     18 N           7.2909   41.5434   11.1495 N.pl3   1  UNL1        0.0823
     19 C           3.1750   45.1878    7.6044 C.3     1  UNL1        0.2525
     20 O           2.9962   44.1483    8.5570 O.3     1  UNL1       -0.4701
     21 C           8.7602   43.9728    9.3155 C.3     1  UNL1        0.1124
     22 N           7.7624   43.1052    8.7041 N.pl3   1  UNL1       -0.2995
     23 C           8.1505   42.2620    7.5776 C.3     1  UNL1        0.1083
     24 C           6.9305   41.8010    6.7866 C.3     1  UNL1        0.0938
     25 C           6.6241   39.5887    6.1218 C.3     1  UNL1        0.0897
     26 C           8.7310   40.5637    5.9552 C.3     1  UNL1        0.0897
     27 N           7.3120   40.8207    5.7831 N.3     1  UNL1       -0.2688
@<TRIPOS>UNITY_ATOM_ATTR
17 1
charge -1
18 1
charge 1
@<TRIPOS>BOND
     1    12    13    1
     2    13    14    1
     3    13    15    1
     4    13    11    1
     5     7    11    1
     6     7     9   am
     7     2     3   ar
     8     3    18    1
     9     4     5   ar
    10     4    22    1
    11     6    20    1
    12     6     1   ar
    13    19    20    1
    14    21    22    1
    15    23    22    1
    16    23    24    1
    17    24    27    1
    18    25    27    1
    19    26    27    1
    20     9     1    1
    21    18    17    1
    22     7     8    2
    23     1     2   ar
    24     3     4   ar
    25     5     6   ar
    26    18    16    2
    27     9    10    1
@<TRIPOS>MOLECULE
Molport-051-996-551 MCULE-9800697149 PubChem-118351748 PubChem-129158233 PubChem-145420292 PubChem-157092727 PubChem-157831666 PubChem-158370418 PubChem-159068665 PubChem-159124835 PubChem-160433104 PubChem-165060170 PubChem-165086823
 27 27 0 0 0
SMALL
GASTEIGER

@<TRIPOS>ATOM
      1 C          12.1887   41.3981    7.0515 C.ar    1  UNL1        0.0935
      2 C          11.7854   40.6581    5.9327 C.ar    1  UNL1        0.0944
      3 C          10.4335   40.3791    5.6878 C.ar    1  UNL1        0.3044
      4 C           9.4591   40.8339    6.6082 C.ar    1  UNL1        0.1214
      5 C           9.8676   41.5923    7.7129 C.ar    1  UNL1        0.0589
      6 C          11.2198   41.8824    7.9399 C.ar    1  UNL1        0.1538
      7 C          14.4344   42.5231    6.5172 C.2     1  UNL1        0.4052
      8 O          14.0059   43.0993    5.4800 O.2     1  UNL1       -0.2261
      9 N          13.5736   41.6864    7.3003 N.am    1  UNL1       -0.2470
     10 H          13.9747   41.2639    8.0939 H       1  UNL1        0.1583
     11 O          15.7647   42.6891    6.9253 O.3     1  UNL1       -0.4417
     12 C          17.2233   44.2274    8.0336 C.3     1  UNL1        0.0437
     13 C          16.5317   43.8801    6.7323 C.3     1  UNL1        0.1378
     14 C          17.5928   43.6694    5.6659 C.3     1  UNL1        0.0437
     15 C          15.6331   45.0408    6.3416 C.3     1  UNL1        0.0437
     16 O           8.9994   39.9651    3.9022 O.2     1  UNL1        0.0415
     17 O          10.7819   38.5867    4.0688 O.co2   1  UNL1       -0.5760
     18 N          10.0736   39.6932    4.4778 N.pl3   1  UNL1        0.0823
     19 C          10.7086   43.0887   10.0416 C.3     1  UNL1        0.2525
     20 O          11.6191   42.6416    9.0460 O.3     1  UNL1       -0.4701
     21 C           7.6300   39.1172    6.6763 C.3     1  UNL1        0.1124
     22 N           8.0702   40.4913    6.4754 N.pl3   1  UNL1       -0.2995
     23 C           7.0690   41.5351    6.2787 C.3     1  UNL1        0.1083
     24 C           6.7022   42.2046    7.5992 C.3     1  UNL1        0.0938
     25 C           4.9965   41.1950    8.8244 C.3     1  UNL1        0.0897
     26 C           7.0223   41.6918    9.8572 C.3     1  UNL1        0.0897
     27 N           6.4332   41.2066    8.6215 N.3     1  UNL1       -0.2688
@<TRIPOS>UNITY_ATOM_ATTR
17 1
charge -1
18 1
charge 1
@<TRIPOS>BOND
     1    12    13    1
     2    13    14    1
     3    13    15    1
     4    13    11    1
     5     7    11    1
     6     7     9   am
     7     2     3   ar
     8     3    18    1
     9     4     5   ar
    10     4    22    1
    11     6    20    1
    12     6     1   ar
    13    19    20    1
    14    21    22    1
    15    23    22    1
    16    23    24    1
    17    24    27    1
    18    25    27    1
    19    26    27    1
    20     9     1    1
    21    18    17    1
    22     7     8    2
    23     1     2   ar
    24     3     4   ar
    25     5     6   ar
    26    18    16    2
    27     9    10    1
@<TRIPOS>MOLECULE
Molport-051-996-551 MCULE-9800697149 PubChem-118351748 PubChem-129158233 PubChem-145420292 PubChem-157092727 PubChem-157831666 PubChem-158370418 PubChem-159068665 PubChem-159124835 PubChem-160433104 PubChem-165060170 PubChem-165086823
 27 27 0 0 0
SMALL
GASTEIGER

@<TRIPOS>ATOM
      1 C           4.5932   41.1931   11.2660 C.ar    1  UNL1        0.0935
      2 C           5.9037   41.6134   11.5269 C.ar    1  UNL1        0.0944
      3 C           6.8472   41.7501   10.4989 C.ar    1  UNL1        0.3044
      4 C           6.4713   41.4295    9.1725 C.ar    1  UNL1        0.1214
      5 C           5.1531   41.0313    8.9159 C.ar    1  UNL1        0.0589
      6 C           4.2111   40.9153    9.9471 C.ar    1  UNL1        0.1538
      7 C           2.4641   41.8674   12.5333 C.2     1  UNL1        0.4052
      8 O           2.1957   42.8279   11.7609 O.2     1  UNL1       -0.2261
      9 N           3.6261   41.0563   12.3190 N.am    1  UNL1       -0.2470
     10 H           3.7777   40.3270   12.9628 H       1  UNL1        0.1583
     11 O           1.6297   41.5739   13.6204 O.3     1  UNL1       -0.4417
     12 C          -0.7508   41.7936   13.5372 C.3     1  UNL1        0.0437
     13 C           0.5404   42.3924   14.0534 C.3     1  UNL1        0.1378
     14 C           0.4744   42.4413   15.5701 C.3     1  UNL1        0.0437
     15 C           0.6722   43.8003   13.4985 C.3     1  UNL1        0.0437
     16 O           8.9017   41.6413   11.5868 O.2     1  UNL1        0.0415
     17 O           8.4875   43.5566   10.4621 O.co2   1  UNL1       -0.5760
     18 N           8.1485   42.2706   10.8149 N.pl3   1  UNL1        0.0823
     19 C           2.0076   41.2825    8.8780 C.3     1  UNL1        0.2525
     20 O           2.8957   40.5173    9.6816 O.3     1  UNL1       -0.4701
     21 C           7.6593   42.6703    7.3433 C.3     1  UNL1        0.1124
     22 N           7.4165   41.4436    8.0906 N.pl3   1  UNL1       -0.2995
     23 C           8.2447   40.2725    7.8200 C.3     1  UNL1        0.1083
     24 C           7.7210   39.4912    6.6192 C.3     1  UNL1        0.0938
     25 C           9.3149   38.0305    7.4886 C.3     1  UNL1        0.0897
     26 C           9.6518   38.9965    5.3980 C.3     1  UNL1        0.0897
     27 N           8.6391   38.4209    6.2654 N.3     1  UNL1       -0.2688
@<TRIPOS>UNITY_ATOM_ATTR
17 1
charge -1
18 1
charge 1
@<TRIPOS>BOND
     1    12    13    1
     2    13    14    1
     3    13    15    1
     4    13    11    1
     5     7    11    1
     6     7     9   am
     7     2     3   ar
     8     3    18    1
     9     4     5   ar
    10     4    22    1
    11     6    20    1
    12     6     1   ar
    13    19    20    1
    14    21    22    1
    15    23    22    1
    16    23    24    1
    17    24    27    1
    18    25    27    1
    19    26    27    1
    20     9     1    1
    21    18    17    1
    22     7     8    2
    23     1     2   ar
    24     3     4   ar
    25     5     6   ar
    26    18    16    2
    27     9    10    1
@<TRIPOS>MOLECULE
Molport-051-996-551 MCULE-9800697149 PubChem-118351748 PubChem-129158233 PubChem-145420292 PubChem-157092727 PubChem-157831666 PubChem-158370418 PubChem-159068665 PubChem-159124835 PubChem-160433104 PubChem-165060170 PubChem-165086823
 27 27 0 0 0
SMALL
GASTEIGER

@<TRIPOS>ATOM
      1 C           8.7812   41.9703   10.4063 C.ar    1  UNL1        0.0935
      2 C           9.3162   40.6826   10.2725 C.ar    1  UNL1        0.0944
      3 C          10.5655   40.4673    9.6738 C.ar    1  UNL1        0.3044
      4 C          11.2876   41.5755    9.1700 C.ar    1  UNL1        0.1214
      5 C          10.7567   42.8623    9.3272 C.ar    1  UNL1        0.0589
      6 C           9.5155   43.0701    9.9439 C.ar    1  UNL1        0.1538
      7 C           6.2227   41.7848   10.5219 C.2     1  UNL1        0.4052
      8 O           6.1239   41.1681    9.4259 O.2     1  UNL1       -0.2261
      9 N           7.5028   42.1907   11.0227 N.am    1  UNL1       -0.2470
     10 H           7.5061   42.6723   11.8813 H       1  UNL1        0.1583
     11 O           5.0793   42.0874   11.2737 O.3     1  UNL1       -0.4417
     12 C           3.3647   41.8288    9.6259 C.3     1  UNL1        0.0437
     13 C           3.7851   41.5233   11.0479 C.3     1  UNL1        0.1378
     14 C           3.8177   40.0150   11.2254 C.3     1  UNL1        0.0437
     15 C           2.7618   42.1305   11.9921 C.3     1  UNL1        0.0437
     16 O          11.9292   38.7768   10.5098 O.2     1  UNL1        0.0415
     17 O          10.8925   38.3239    8.5540 O.co2   1  UNL1       -0.5760
     18 N          11.1021   39.1348    9.6456 N.pl3   1  UNL1        0.0823
     19 C           8.0816   44.9357    9.1712 C.3     1  UNL1        0.2525
     20 O           8.9928   44.3595   10.0973 O.3     1  UNL1       -0.4701
     21 C          13.7140   40.9368    9.1350 C.3     1  UNL1        0.1124
     22 N          12.5205   41.4152    8.4502 N.pl3   1  UNL1       -0.2995
     23 C          12.5572   41.5928    7.0019 C.3     1  UNL1        0.1083
     24 C          11.7293   40.5254    6.2934 C.3     1  UNL1        0.0938
     25 C           9.5423   41.2784    6.0111 C.3     1  UNL1        0.0897
     26 C          10.6175   40.1732    4.2677 C.3     1  UNL1        0.0897
     27 N          10.8193   41.1347    5.3373 N.3     1  UNL1       -0.2688
@<TRIPOS>UNITY_ATOM_ATTR
17 1
charge -1
18 1
charge 1
@<TRIPOS>BOND
     1    12    13    1
     2    13    14    1
     3    13    15    1
     4    13    11    1
     5     7    11    1
     6     7     9   am
     7     2     3   ar
     8     3    18    1
     9     4     5   ar
    10     4    22    1
    11     6    20    1
    12     6     1   ar
    13    19    20    1
    14    21    22    1
    15    23    22    1
    16    23    24    1
    17    24    27    1
    18    25    27    1
    19    26    27    1
    20     9     1    1
    21    18    17    1
    22     7     8    2
    23     1     2   ar
    24     3     4   ar
    25     5     6   ar
    26    18    16    2
    27     9    10    1
@<TRIPOS>MOLECULE
Molport-051-996-551 MCULE-9800697149 PubChem-118351748 PubChem-129158233 PubChem-145420292 PubChem-157092727 PubChem-157831666 PubChem-158370418 PubChem-159068665 PubChem-159124835 PubChem-160433104 PubChem-165060170 PubChem-165086823
 27 27 0 0 0
SMALL
GASTEIGER

@<TRIPOS>ATOM
      1 C          12.7076   40.8301    9.5263 C.ar    1  UNL1        0.0935
      2 C          12.9413   39.9493   10.5901 C.ar    1  UNL1        0.0944
      3 C          14.1906   39.3410   10.7763 C.ar    1  UNL1        0.3044
      4 C          15.2290   39.6042    9.8511 C.ar    1  UNL1        0.1214
      5 C          14.9949   40.5031    8.8027 C.ar    1  UNL1        0.0589
      6 C          13.7484   41.1212    8.6349 C.ar    1  UNL1        0.1538
      7 C          10.2173   40.8266    8.8997 C.2     1  UNL1        0.4052
      8 O          10.1917   39.5957    8.6247 O.2     1  UNL1       -0.2261
      9 N          11.4284   41.4554    9.3378 N.am    1  UNL1       -0.2470
     10 H          11.3781   42.4196    9.5303 H       1  UNL1        0.1583
     11 O           9.0590   41.6064    8.7808 O.3     1  UNL1       -0.4417
     12 C           6.8772   41.9923    9.6822 C.3     1  UNL1        0.0437
     13 C           8.3636   42.2019    9.8790 C.3     1  UNL1        0.1378
     14 C           8.7709   41.5510   11.1897 C.3     1  UNL1        0.0437
     15 C           8.6340   43.6954    9.9403 C.3     1  UNL1        0.0437
     16 O          15.2178   38.8651   12.8097 O.2     1  UNL1        0.0415
     17 O          13.8735   37.2462   11.9871 O.co2   1  UNL1       -0.5760
     18 N          14.3967   38.5177   11.9355 N.pl3   1  UNL1        0.0823
     19 C          14.5777   42.5922    6.8233 C.3     1  UNL1        0.2525
     20 O          13.5234   42.0188    7.5847 O.3     1  UNL1       -0.4701
     21 C          17.7225   39.6949   10.1173 C.3     1  UNL1        0.1124
     22 N          16.4969   38.9323    9.9209 N.pl3   1  UNL1       -0.2995
     23 C          16.5586   37.4740    9.9382 C.3     1  UNL1        0.1083
     24 C          15.7864   36.8746    8.7673 C.3     1  UNL1        0.0938
     25 C          15.8932   35.3384    7.0183 C.3     1  UNL1        0.0897
     26 C          17.5949   35.4026    8.6049 C.3     1  UNL1        0.0897
     27 N          16.6947   36.2367    7.8283 N.3     1  UNL1       -0.2688
@<TRIPOS>UNITY_ATOM_ATTR
17 1
charge -1
18 1
charge 1
@<TRIPOS>BOND
     1    12    13    1
     2    13    14    1
     3    13    15    1
     4    13    11    1
     5     7    11    1
     6     7     9   am
     7     2     3   ar
     8     3    18    1
     9     4     5   ar
    10     4    22    1
    11     6    20    1
    12     6     1   ar
    13    19    20    1
    14    21    22    1
    15    23    22    1
    16    23    24    1
    17    24    27    1
    18    25    27    1
    19    26    27    1
    20     9     1    1
    21    18    17    1
    22     7     8    2
    23     1     2   ar
    24     3     4   ar
    25     5     6   ar
    26    18    16    2
    27     9    10    1
@<TRIPOS>MOLECULE
Molport-051-996-551 MCULE-9800697149 PubChem-118351748 PubChem-129158233 PubChem-145420292 PubChem-157092727 PubChem-157831666 PubChem-158370418 PubChem-159068665 PubChem-159124835 PubChem-160433104 PubChem-165060170 PubChem-165086823
 27 27 0 0 0
SMALL
GASTEIGER

@<TRIPOS>ATOM
      1 C           8.9804   41.2685    9.7652 C.ar    1  UNL1        0.0935
      2 C           9.9586   40.3441   10.1534 C.ar    1  UNL1        0.0944
      3 C          11.2889   40.4632    9.7272 C.ar    1  UNL1        0.3044
      4 C          11.6423   41.5273    8.8634 C.ar    1  UNL1        0.1214
      5 C          10.6639   42.4605    8.4972 C.ar    1  UNL1        0.0589
      6 C           9.3404   42.3444    8.9432 C.ar    1  UNL1        0.1538
      7 C           7.0631   41.6312   11.4345 C.2     1  UNL1        0.4052
      8 O           7.7847   42.2325   12.2765 O.2     1  UNL1       -0.2261
      9 N           7.6183   41.1480   10.2047 N.am    1  UNL1       -0.2470
     10 H           6.9997   40.6835    9.5958 H       1  UNL1        0.1583
     11 O           5.7004   41.4220   11.6857 O.3     1  UNL1       -0.4417
     12 C           3.4590   42.2522   11.5907 C.3     1  UNL1        0.0437
     13 C           4.6453   41.7670   10.7847 C.3     1  UNL1        0.1378
     14 C           5.0797   42.8831    9.8503 C.3     1  UNL1        0.0437
     15 C           4.2128   40.5569    9.9747 C.3     1  UNL1        0.0437
     16 O          12.3082   38.3717    9.7830 O.2     1  UNL1        0.0415
     17 O          13.0010   39.8428   11.3517 O.co2   1  UNL1       -0.5760
     18 N          12.2652   39.5368   10.2301 N.pl3   1  UNL1        0.0823
     19 C           8.2443   44.5500    9.2025 C.3     1  UNL1        0.2525
     20 O           8.3692   43.2819    8.5729 O.3     1  UNL1       -0.4701
     21 C          13.9772   40.6461    8.6014 C.3     1  UNL1        0.1124
     22 N          12.9601   41.6458    8.3037 N.pl3   1  UNL1       -0.2995
     23 C          13.2535   42.6853    7.3220 C.3     1  UNL1        0.1083
     24 C          14.7281   42.6765    6.9320 C.3     1  UNL1        0.0938
     25 C          14.7789   44.6380    5.6751 C.3     1  UNL1        0.0897
     26 C          16.7004   43.9213    6.7757 C.3     1  UNL1        0.0897
     27 N          15.2577   44.0301    6.9026 N.3     1  UNL1       -0.2688
@<TRIPOS>UNITY_ATOM_ATTR
17 1
charge -1
18 1
charge 1
@<TRIPOS>BOND
     1    12    13    1
     2    13    14    1
     3    13    15    1
     4    13    11    1
     5     7    11    1
     6     7     9   am
     7     2     3   ar
     8     3    18    1
     9     4     5   ar
    10     4    22    1
    11     6    20    1
    12     6     1   ar
    13    19    20    1
    14    21    22    1
    15    23    22    1
    16    23    24    1
    17    24    27    1
    18    25    27    1
    19    26    27    1
    20     9     1    1
    21    18    17    1
    22     7     8    2
    23     1     2   ar
    24     3     4   ar
    25     5     6   ar
    26    18    16    2
    27     9    10    1
@<TRIPOS>MOLECULE
Molport-051-996-551 MCULE-9800697149 PubChem-118351748 PubChem-129158233 PubChem-145420292 PubChem-157092727 PubChem-157831666 PubChem-158370418 PubChem-159068665 PubChem-159124835 PubChem-160433104 PubChem-165060170 PubChem-165086823
 27 27 0 0 0
SMALL
GASTEIGER

@<TRIPOS>ATOM
      1 C          10.9592   39.3654    9.4449 C.ar    1  UNL1        0.0935
      2 C          11.6576   38.2294    9.0162 C.ar    1  UNL1        0.0944
      3 C          12.9400   37.9326    9.4989 C.ar    1  UNL1        0.3044
      4 C          13.5506   38.8174   10.4196 C.ar    1  UNL1        0.1214
      5 C          12.8376   39.9395   10.8608 C.ar    1  UNL1        0.0589
      6 C          11.5484   40.2185   10.3871 C.ar    1  UNL1        0.1538
      7 C           9.3124   40.4973    7.8321 C.2     1  UNL1        0.4052
      8 O          10.2159   41.0638    7.1582 O.2     1  UNL1       -0.2261
      9 N           9.6442   39.6673    8.9525 N.am    1  UNL1       -0.2470
     10 H           8.8896   39.2604    9.4365 H       1  UNL1        0.1583
     11 O           7.9622   40.6694    7.4986 O.3     1  UNL1       -0.4417
     12 C           6.8694   42.6582    6.7418 C.3     1  UNL1        0.0437
     13 C           7.1512   41.7646    7.9311 C.3     1  UNL1        0.1378
     14 C           5.8261   41.2674    8.4827 C.3     1  UNL1        0.0437
     15 C           7.8731   42.5840    8.9869 C.3     1  UNL1        0.0437
     16 O          13.3029   35.6413    9.6843 O.2     1  UNL1        0.0415
     17 O          14.6269   36.7282    8.2110 O.co2   1  UNL1       -0.5760
     18 N          13.5695   36.7073    9.0912 N.pl3   1  UNL1        0.0823
     19 C          10.0292   41.3260   11.9991 C.3     1  UNL1        0.2525
     20 O          10.8428   41.3418   10.8338 O.3     1  UNL1       -0.4701
     21 C          15.2034   37.6464   11.9009 C.3     1  UNL1        0.1124
     22 N          14.9020   38.6310   10.8703 N.pl3   1  UNL1       -0.2995
     23 C          16.0029   39.3208   10.2049 C.3     1  UNL1        0.1083
     24 C          17.3530   38.8135   10.7012 C.3     1  UNL1        0.0938
     25 C          18.0263   36.8663    9.6124 C.3     1  UNL1        0.0897
     26 C          19.5381   38.6132    9.8955 C.3     1  UNL1        0.0897
     27 N          18.1498   38.3120    9.5934 N.3     1  UNL1       -0.2688
@<TRIPOS>UNITY_ATOM_ATTR
17 1
charge -1
18 1
charge 1
@<TRIPOS>BOND
     1    12    13    1
     2    13    14    1
     3    13    15    1
     4    13    11    1
     5     7    11    1
     6     7     9   am
     7     2     3   ar
     8     3    18    1
     9     4     5   ar
    10     4    22    1
    11     6    20    1
    12     6     1   ar
    13    19    20    1
    14    21    22    1
    15    23    22    1
    16    23    24    1
    17    24    27    1
    18    25    27    1
    19    26    27    1
    20     9     1    1
    21    18    17    1
    22     7     8    2
    23     1     2   ar
    24     3     4   ar
    25     5     6   ar
    26    18    16    2
    27     9    10    1
@<TRIPOS>MOLECULE
Molport-051-996-551 MCULE-9800697149 PubChem-118351748 PubChem-129158233 PubChem-145420292 PubChem-157092727 PubChem-157831666 PubChem-158370418 PubChem-159068665 PubChem-159124835 PubChem-160433104 PubChem-165060170 PubChem-165086823
 27 27 0 0 0
SMALL
GASTEIGER

@<TRIPOS>ATOM
      1 C           7.4489   41.7746    8.8971 C.ar    1  UNL1        0.0935
      2 C           8.5204   42.4188    9.5287 C.ar    1  UNL1        0.0944
      3 C           9.8326   42.2973    9.0504 C.ar    1  UNL1        0.3044
      4 C          10.0804   41.4826    7.9197 C.ar    1  UNL1        0.1214
      5 C           9.0013   40.8594    7.2800 C.ar    1  UNL1        0.0589
      6 C           7.6900   41.0016    7.7539 C.ar    1  UNL1        0.1538
      7 C           5.2840   43.0771    9.3567 C.2     1  UNL1        0.4052
      8 O           5.7197   44.1569    8.8715 O.2     1  UNL1       -0.2261
      9 N           6.1042   41.9021    9.3856 N.am    1  UNL1       -0.2470
     10 H           5.7028   41.0957    9.7829 H       1  UNL1        0.1583
     11 O           3.9859   43.0046    9.8798 O.3     1  UNL1       -0.4417
     12 C           4.6083   41.3186   11.4583 C.3     1  UNL1        0.0437
     13 C           3.4770   41.9079   10.6428 C.3     1  UNL1        0.1378
     14 C           2.3904   42.3747   11.5962 C.3     1  UNL1        0.0437
     15 C           2.9293   40.8253    9.7288 C.3     1  UNL1        0.0437
     16 O          10.8276   43.2744   10.9136 O.2     1  UNL1        0.0415
     17 O          11.8071   43.7262    8.9283 O.co2   1  UNL1       -0.5760
     18 N          10.8765   43.0528    9.6857 N.pl3   1  UNL1        0.0823
     19 C           6.7948   39.4339    6.0586 C.3     1  UNL1        0.2525
     20 O           6.6174   40.3757    7.1081 O.3     1  UNL1       -0.4701
     21 C          11.9311   41.9537    6.2918 C.3     1  UNL1        0.1124
     22 N          11.4119   41.2285    7.4437 N.pl3   1  UNL1       -0.2995
     23 C          12.3063   40.3489    8.1899 C.3     1  UNL1        0.1083
     24 C          13.7369   40.8780    8.1795 C.3     1  UNL1        0.0938
     25 C          13.9741   39.9127   10.2870 C.3     1  UNL1        0.0897
     26 C          15.8430   40.7570    9.1862 C.3     1  UNL1        0.0897
     27 N          14.6017   40.0306    8.9841 N.3     1  UNL1       -0.2688
@<TRIPOS>UNITY_ATOM_ATTR
17 1
charge -1
18 1
charge 1
@<TRIPOS>BOND
     1    12    13    1
     2    13    14    1
     3    13    15    1
     4    13    11    1
     5     7    11    1
     6     7     9   am
     7     2     3   ar
     8     3    18    1
     9     4     5   ar
    10     4    22    1
    11     6    20    1
    12     6     1   ar
    13    19    20    1
    14    21    22    1
    15    23    22    1
    16    23    24    1
    17    24    27    1
    18    25    27    1
    19    26    27    1
    20     9     1    1
    21    18    17    1
    22     7     8    2
    23     1     2   ar
    24     3     4   ar
    25     5     6   ar
    26    18    16    2
    27     9    10    1
