@<TRIPOS>MOLECULE
Molport-020-295-207 MCULE-7020605254 PubChem-110267298
 29 32 0 0 0
SMALL
GASTEIGER

@<TRIPOS>ATOM
      1 C          12.2249   41.3877    7.4527 C.ar    1  UNL1        0.2214
      2 C          10.8456   41.4375    9.3761 C.ar    1  UNL1        0.1031
      3 C          11.1426   40.1021    9.6378 C.ar    1  UNL1        0.0356
      4 C          12.0035   39.4276    8.7649 C.ar    1  UNL1        0.0647
      5 N          11.3886   42.0539    8.2949 N.ar    1  UNL1       -0.2120
      6 N          12.5245   40.0842    7.6951 N.ar    1  UNL1       -0.2179
      7 C          12.3656   37.9941    8.9895 C.3     1  UNL1        0.0603
      8 C          11.6554   37.4314   10.2238 C.3     1  UNL1        0.0094
      9 C          12.0287   35.9653   10.4304 C.3     1  UNL1        0.0220
     10 C          13.5410   35.8323   10.5739 C.3     1  UNL1        0.0937
     11 C          13.8814   37.8225    9.1059 C.3     1  UNL1        0.0996
     12 C          15.2246   35.7448    8.6756 C.2     1  UNL1        0.2505
     13 N          14.1932   36.4289    9.4105 N.am    1  UNL1       -0.2757
     14 O          16.0788   36.4252    8.0430 O.2     1  UNL1       -0.2699
     15 C          15.3134   34.2665    8.6228 C.ar    1  UNL1        0.0727
     16 C          16.5627   33.6435    8.4937 C.ar    1  UNL1        0.1034
     17 C          15.5488   31.4973    8.4541 C.ar    1  UNL1        0.0989
     18 C          14.2820   32.0709    8.5703 C.ar    1  UNL1        0.0208
     19 C          14.1689   33.4594    8.6501 C.ar    1  UNL1        0.0077
     20 N          16.6537   32.2884    8.4165 N.ar    1  UNL1       -0.2422
     21 N          12.8008   42.0359    6.3123 N.pl3   1  UNL1       -0.2682
     22 H          12.4268   41.8003    5.4326 H       1  UNL1        0.1565
     23 C          15.1205   41.5540    7.9788 C.3     1  UNL1        0.0340
     24 C          14.9988   42.7725    7.1292 C.ar    1  UNL1        0.0099
     25 C          13.8689   42.9950    6.3247 C.ar    1  UNL1        0.1302
     26 C          14.8007   45.0471    5.5535 C.ar    1  UNL1        0.1003
     27 C          15.9363   44.8572    6.3413 C.ar    1  UNL1        0.0204
     28 C          16.0314   43.7120    7.1322 C.ar    1  UNL1        0.0001
     29 N          13.8031   44.1230    5.5619 N.ar    1  UNL1       -0.2293
@<TRIPOS>BOND
     1    23    24    1
     2    25    29   ar
     3    25    21    1
     4    26    27   ar
     5    28    24   ar
     6     1     6   ar
     7     2     5   ar
     8     3     4   ar
     9     7     4    1
    10     7     8    1
    11     8     9    1
    12     9    10    1
    13    10    13    1
    14    11    13    1
    15    11     7    1
    16    12    15    1
    17    16    20   ar
    18    17    18   ar
    19    19    15   ar
    20    21     1    1
    21    13    12   am
    22    24    25   ar
    23    26    29   ar
    24    27    28   ar
    25     1     5   ar
    26     2     3   ar
    27     4     6   ar
    28    12    14    2
    29    15    16   ar
    30    17    20   ar
    31    18    19   ar
    32    21    22    1
@<TRIPOS>MOLECULE
Molport-020-295-207 MCULE-7020605254 PubChem-110267298
 29 32 0 0 0
SMALL
GASTEIGER

@<TRIPOS>ATOM
      1 C           8.3516   41.9626   10.9327 C.ar    1  UNL1        0.2214
      2 C           9.9048   40.5427   12.0170 C.ar    1  UNL1        0.1031
      3 C          10.8778   40.8685   11.0751 C.ar    1  UNL1        0.0356
      4 C          10.5428   41.7646   10.0539 C.ar    1  UNL1        0.0647
      5 N           8.6661   41.0920   11.9306 N.ar    1  UNL1       -0.2120
      6 N           9.2907   42.2907   10.0062 N.ar    1  UNL1       -0.2179
      7 C          11.5409   42.1587    9.0124 C.3     1  UNL1        0.0603
      8 C          10.9294   42.0987    7.6099 C.3     1  UNL1        0.0094
      9 C          11.9593   42.5144    6.5620 C.3     1  UNL1        0.0220
     10 C          13.1836   41.6098    6.6531 C.3     1  UNL1        0.0937
     11 C          12.7967   41.2890    9.0984 C.3     1  UNL1        0.0996
     12 C          15.1073   41.8520    8.2921 C.2     1  UNL1        0.2505
     13 N          13.7104   41.6420    8.0155 N.am    1  UNL1       -0.2757
     14 O          15.5950   41.3921    9.3613 O.2     1  UNL1       -0.2699
     15 C          15.9941   42.6019    7.3716 C.ar    1  UNL1        0.0727
     16 C          15.4433   43.3487    6.3207 C.ar    1  UNL1        0.1034
     17 C          17.6033   43.9833    5.5675 C.ar    1  UNL1        0.0989
     18 C          18.1995   43.2446    6.5902 C.ar    1  UNL1        0.0208
     19 C          17.3889   42.5504    7.4893 C.ar    1  UNL1        0.0077
     20 N          16.2490   44.0185    5.4532 N.ar    1  UNL1       -0.2422
     21 N           7.0461   42.5453   10.8400 N.pl3   1  UNL1       -0.2682
     22 H           6.9904   43.5243   10.9271 H       1  UNL1        0.1565
     23 C           5.5647   42.9747    8.3881 C.3     1  UNL1        0.0340
     24 C           5.0835   42.0437    9.4479 C.ar    1  UNL1        0.0099
     25 C           5.8111   41.8434   10.6327 C.ar    1  UNL1        0.1302
     26 C           4.1670   40.3009   11.4019 C.ar    1  UNL1        0.1003
     27 C           3.4196   40.4773   10.2372 C.ar    1  UNL1        0.0204
     28 C           3.8843   41.3548    9.2575 C.ar    1  UNL1        0.0001
     29 N           5.3329   40.9796   11.5728 N.ar    1  UNL1       -0.2293
@<TRIPOS>BOND
     1    23    24    1
     2    25    29   ar
     3    25    21    1
     4    26    27   ar
     5    28    24   ar
     6     1     6   ar
     7     2     5   ar
     8     3     4   ar
     9     7     4    1
    10     7     8    1
    11     8     9    1
    12     9    10    1
    13    10    13    1
    14    11    13    1
    15    11     7    1
    16    12    15    1
    17    16    20   ar
    18    17    18   ar
    19    19    15   ar
    20    21     1    1
    21    13    12   am
    22    24    25   ar
    23    26    29   ar
    24    27    28   ar
    25     1     5   ar
    26     2     3   ar
    27     4     6   ar
    28    12    14    2
    29    15    16   ar
    30    17    20   ar
    31    18    19   ar
    32    21    22    1
@<TRIPOS>MOLECULE
Molport-020-295-207 MCULE-7020605254 PubChem-110267298
 29 32 0 0 0
SMALL
GASTEIGER

@<TRIPOS>ATOM
      1 C          14.0639   40.6740    9.1878 C.ar    1  UNL1        0.2214
      2 C          13.3730   39.6848   11.2246 C.ar    1  UNL1        0.1031
      3 C          12.0432   39.9726   10.9266 C.ar    1  UNL1        0.0356
      4 C          11.7566   40.6269    9.7234 C.ar    1  UNL1        0.0647
      5 N          14.3547   40.0379   10.3554 N.ar    1  UNL1       -0.2120
      6 N          12.7708   40.9614    8.8829 N.ar    1  UNL1       -0.2179
      7 C          10.3504   40.9630    9.3415 C.3     1  UNL1        0.0603
      8 C          10.3100   41.7908    8.0541 C.3     1  UNL1        0.0094
      9 C           8.8668   42.1148    7.6746 C.3     1  UNL1        0.0220
     10 C           8.1880   42.8640    8.8162 C.3     1  UNL1        0.0937
     11 C           9.6307   41.6885   10.4802 C.3     1  UNL1        0.0996
     12 C           7.1566   41.8219   10.8889 C.2     1  UNL1        0.2505
     13 N           8.2929   42.0775   10.0431 N.am    1  UNL1       -0.2757
     14 O           7.3454   41.6034   12.1174 O.2     1  UNL1       -0.2699
     15 C           5.7699   41.7925   10.3669 C.ar    1  UNL1        0.0727
     16 C           5.2937   42.8522    9.5823 C.ar    1  UNL1        0.1034
     17 C           3.1570   41.8329    9.4063 C.ar    1  UNL1        0.0989
     18 C           3.5807   40.7611   10.1929 C.ar    1  UNL1        0.0208
     19 C           4.8899   40.7475   10.6757 C.ar    1  UNL1        0.0077
     20 N           4.0140   42.8489    9.1210 N.ar    1  UNL1       -0.2422
     21 N          15.0973   41.0461    8.2679 N.pl3   1  UNL1       -0.2682
     22 H          15.8488   40.4180    8.1677 H       1  UNL1        0.1565
     23 C          17.3240   42.8700    8.5925 C.3     1  UNL1        0.0340
     24 C          16.2206   43.1361    7.6267 C.ar    1  UNL1        0.0099
     25 C          15.1460   42.2436    7.4779 C.ar    1  UNL1        0.1302
     26 C          14.1823   43.6538    5.8174 C.ar    1  UNL1        0.1003
     27 C          15.2346   44.5614    5.9409 C.ar    1  UNL1        0.0204
     28 C          16.2572   44.2970    6.8521 C.ar    1  UNL1        0.0001
     29 N          14.1607   42.5277    6.5794 N.ar    1  UNL1       -0.2293
@<TRIPOS>BOND
     1    23    24    1
     2    25    29   ar
     3    25    21    1
     4    26    27   ar
     5    28    24   ar
     6     1     6   ar
     7     2     5   ar
     8     3     4   ar
     9     7     4    1
    10     7     8    1
    11     8     9    1
    12     9    10    1
    13    10    13    1
    14    11    13    1
    15    11     7    1
    16    12    15    1
    17    16    20   ar
    18    17    18   ar
    19    19    15   ar
    20    21     1    1
    21    13    12   am
    22    24    25   ar
    23    26    29   ar
    24    27    28   ar
    25     1     5   ar
    26     2     3   ar
    27     4     6   ar
    28    12    14    2
    29    15    16   ar
    30    17    20   ar
    31    18    19   ar
    32    21    22    1
@<TRIPOS>MOLECULE
Molport-020-295-207 MCULE-7020605254 PubChem-110267298
 29 32 0 0 0
SMALL
GASTEIGER

@<TRIPOS>ATOM
      1 C           8.0244   40.0357    6.4913 C.ar    1  UNL1        0.2214
      2 C           8.8695   38.8989    4.5945 C.ar    1  UNL1        0.1031
      3 C          10.1697   39.2516    4.9481 C.ar    1  UNL1        0.0356
      4 C          10.3617   40.0140    6.1056 C.ar    1  UNL1        0.0647
      5 N           7.8254   39.2942    5.3674 N.ar    1  UNL1       -0.2120
      6 N           9.2875   40.3874    6.8496 N.ar    1  UNL1       -0.2179
      7 C          11.7316   40.4243    6.5432 C.3     1  UNL1        0.0603
      8 C          12.0757   39.8303    7.9119 C.3     1  UNL1        0.0094
      9 C          13.4808   40.2509    8.3367 C.3     1  UNL1        0.0220
     10 C          13.5762   41.7725    8.3723 C.3     1  UNL1        0.0937
     11 C          11.8698   41.9479    6.5587 C.3     1  UNL1        0.0996
     12 C          13.9812   43.2958    6.3820 C.2     1  UNL1        0.2505
     13 N          13.1868   42.3137    7.0722 N.am    1  UNL1       -0.2757
     14 O          13.4154   44.0802    5.5713 O.2     1  UNL1       -0.2699
     15 C          15.4454   43.4119    6.5784 C.ar    1  UNL1        0.0727
     16 C          16.2217   44.1283    5.6566 C.ar    1  UNL1        0.1034
     17 C          18.2087   43.6176    6.8510 C.ar    1  UNL1        0.0989
     18 C          17.4810   42.8838    7.7886 C.ar    1  UNL1        0.0208
     19 C          16.0969   42.7799    7.6452 C.ar    1  UNL1        0.0077
     20 N          17.5701   44.2182    5.8119 N.ar    1  UNL1       -0.2422
     21 N           6.9249   40.4526    7.3097 N.pl3   1  UNL1       -0.2682
     22 H           6.4141   39.7424    7.7613 H       1  UNL1        0.1565
     23 C           5.2215   41.0354    9.5790 C.3     1  UNL1        0.0340
     24 C           5.6674   42.0979    8.6337 C.ar    1  UNL1        0.0099
     25 C           6.4940   41.8030    7.5368 C.ar    1  UNL1        0.1302
     26 C           6.4867   44.0963    6.8927 C.ar    1  UNL1        0.1003
     27 C           5.6653   44.4233    7.9719 C.ar    1  UNL1        0.0204
     28 C           5.2556   43.4151    8.8446 C.ar    1  UNL1        0.0001
     29 N           6.8789   42.8085    6.7005 N.ar    1  UNL1       -0.2293
@<TRIPOS>BOND
     1    23    24    1
     2    25    29   ar
     3    25    21    1
     4    26    27   ar
     5    28    24   ar
     6     1     6   ar
     7     2     5   ar
     8     3     4   ar
     9     7     4    1
    10     7     8    1
    11     8     9    1
    12     9    10    1
    13    10    13    1
    14    11    13    1
    15    11     7    1
    16    12    15    1
    17    16    20   ar
    18    17    18   ar
    19    19    15   ar
    20    21     1    1
    21    13    12   am
    22    24    25   ar
    23    26    29   ar
    24    27    28   ar
    25     1     5   ar
    26     2     3   ar
    27     4     6   ar
    28    12    14    2
    29    15    16   ar
    30    17    20   ar
    31    18    19   ar
    32    21    22    1
@<TRIPOS>MOLECULE
Molport-020-295-207 MCULE-7020605254 PubChem-110267298
 29 32 0 0 0
SMALL
GASTEIGER

@<TRIPOS>ATOM
      1 C          11.9296   41.8641    6.8263 C.ar    1  UNL1        0.2214
      2 C          11.1590   40.5657    5.0029 C.ar    1  UNL1        0.1031
      3 C           9.8397   40.7705    5.3998 C.ar    1  UNL1        0.0356
      4 C           9.5996   41.5445    6.5405 C.ar    1  UNL1        0.0647
      5 N          12.1752   41.1128    5.7183 N.ar    1  UNL1       -0.2120
      6 N          10.6473   42.0732    7.2259 N.ar    1  UNL1       -0.2179
      7 C           8.2072   41.8053    7.0195 C.3     1  UNL1        0.0603
      8 C           7.5689   42.9692    6.2562 C.3     1  UNL1        0.0094
      9 C           6.1452   43.2132    6.7511 C.3     1  UNL1        0.0220
     10 C           6.1604   43.4977    8.2492 C.3     1  UNL1        0.0937
     11 C           8.1845   42.0633    8.5274 C.3     1  UNL1        0.0996
     12 C           6.2518   41.7652   10.1028 C.2     1  UNL1        0.2505
     13 N           6.8262   42.3990    8.9451 N.am    1  UNL1       -0.2757
     14 O           7.0172   41.2137   10.9411 O.2     1  UNL1       -0.2699
     15 C           4.7898   41.7244   10.3413 C.ar    1  UNL1        0.0727
     16 C           3.9182   41.3871    9.2963 C.ar    1  UNL1        0.1034
     17 C           2.0292   41.6896   10.7019 C.ar    1  UNL1        0.0989
     18 C           2.8547   42.0431   11.7699 C.ar    1  UNL1        0.0208
     19 C           4.2374   42.0634   11.5830 C.ar    1  UNL1        0.0077
     20 N           2.5728   41.3734    9.4966 N.ar    1  UNL1       -0.2422
     21 N          12.9997   42.4441    7.5819 N.pl3   1  UNL1       -0.2682
     22 H          12.9493   42.3564    8.5612 H       1  UNL1        0.1565
     23 C          15.6617   41.6023    8.3536 C.3     1  UNL1        0.0340
     24 C          15.4341   42.7418    7.4203 C.ar    1  UNL1        0.0099
     25 C          14.1382   43.1405    7.0531 C.ar    1  UNL1        0.1302
     26 C          15.0396   44.8633    5.6770 C.ar    1  UNL1        0.1003
     27 C          16.3399   44.4936    6.0216 C.ar    1  UNL1        0.0204
     28 C          16.5334   43.4263    6.8987 C.ar    1  UNL1        0.0001
     29 N          13.9791   44.1870    6.1939 N.ar    1  UNL1       -0.2293
@<TRIPOS>BOND
     1    23    24    1
     2    25    29   ar
     3    25    21    1
     4    26    27   ar
     5    28    24   ar
     6     1     6   ar
     7     2     5   ar
     8     3     4   ar
     9     7     4    1
    10     7     8    1
    11     8     9    1
    12     9    10    1
    13    10    13    1
    14    11    13    1
    15    11     7    1
    16    12    15    1
    17    16    20   ar
    18    17    18   ar
    19    19    15   ar
    20    21     1    1
    21    13    12   am
    22    24    25   ar
    23    26    29   ar
    24    27    28   ar
    25     1     5   ar
    26     2     3   ar
    27     4     6   ar
    28    12    14    2
    29    15    16   ar
    30    17    20   ar
    31    18    19   ar
    32    21    22    1
@<TRIPOS>MOLECULE
Molport-020-295-207 MCULE-7020605254 PubChem-110267298
 29 32 0 0 0
SMALL
GASTEIGER

@<TRIPOS>ATOM
      1 C          12.7676   41.8414    7.6869 C.ar    1  UNL1        0.2214
      2 C          10.6180   41.4209    8.5852 C.ar    1  UNL1        0.1031
      3 C          10.9717   40.0986    8.8429 C.ar    1  UNL1        0.0356
      4 C          12.2607   39.6750    8.5008 C.ar    1  UNL1        0.0647
      5 N          11.5165   42.2647    8.0154 N.ar    1  UNL1       -0.2120
      6 N          13.1277   40.5538    7.9326 N.ar    1  UNL1       -0.2179
      7 C          12.7054   38.2696    8.7527 C.3     1  UNL1        0.0603
      8 C          11.8440   37.6015    9.8280 C.3     1  UNL1        0.0094
      9 C          12.3058   36.1653   10.0635 C.3     1  UNL1        0.0220
     10 C          13.7755   36.1550   10.4700 C.3     1  UNL1        0.0937
     11 C          14.1868   38.2222    9.1323 C.3     1  UNL1        0.0996
     12 C          15.7659   36.2836    8.8992 C.2     1  UNL1        0.2505
     13 N          14.5646   36.8491    9.4550 N.am    1  UNL1       -0.2757
     14 O          16.6528   37.0577    8.4443 O.2     1  UNL1       -0.2699
     15 C          15.9952   34.8212    8.8287 C.ar    1  UNL1        0.0727
     16 C          17.2834   34.3035    9.0239 C.ar    1  UNL1        0.1034
     17 C          16.5097   32.0909    8.6481 C.ar    1  UNL1        0.0989
     18 C          15.2126   32.5587    8.4343 C.ar    1  UNL1        0.0208
     19 C          14.9606   33.9284    8.5216 C.ar    1  UNL1        0.0077
     20 N          17.5105   32.9653    8.9342 N.ar    1  UNL1       -0.2422
     21 N          13.7183   42.7298    7.0874 N.pl3   1  UNL1       -0.2682
     22 H          13.3780   43.3417    6.3953 H       1  UNL1        0.1565
     23 C          15.3037   44.8437    5.9007 C.3     1  UNL1        0.0340
     24 C          15.8970   43.8370    6.8258 C.ar    1  UNL1        0.0099
     25 C          15.1176   42.8165    7.3956 C.ar    1  UNL1        0.1302
     26 C          17.0262   41.9793    8.5490 C.ar    1  UNL1        0.1003
     27 C          17.8288   42.9797    7.9999 C.ar    1  UNL1        0.0204
     28 C          17.2566   43.9115    7.1338 C.ar    1  UNL1        0.0001
     29 N          15.7036   41.9198    8.2388 N.ar    1  UNL1       -0.2293
@<TRIPOS>BOND
     1    23    24    1
     2    25    29   ar
     3    25    21    1
     4    26    27   ar
     5    28    24   ar
     6     1     6   ar
     7     2     5   ar
     8     3     4   ar
     9     7     4    1
    10     7     8    1
    11     8     9    1
    12     9    10    1
    13    10    13    1
    14    11    13    1
    15    11     7    1
    16    12    15    1
    17    16    20   ar
    18    17    18   ar
    19    19    15   ar
    20    21     1    1
    21    13    12   am
    22    24    25   ar
    23    26    29   ar
    24    27    28   ar
    25     1     5   ar
    26     2     3   ar
    27     4     6   ar
    28    12    14    2
    29    15    16   ar
    30    17    20   ar
    31    18    19   ar
    32    21    22    1
@<TRIPOS>MOLECULE
Molport-020-295-207 MCULE-7020605254 PubChem-110267298
 29 32 0 0 0
SMALL
GASTEIGER

@<TRIPOS>ATOM
      1 C          16.1400   40.7020    9.1949 C.ar    1  UNL1        0.2214
      2 C          16.2196   38.7865   10.5836 C.ar    1  UNL1        0.1031
      3 C          14.8460   38.6086   10.4365 C.ar    1  UNL1        0.0356
      4 C          14.1376   39.5181    9.6435 C.ar    1  UNL1        0.0647
      5 N          16.8395   39.8235    9.9639 N.ar    1  UNL1       -0.2120
      6 N          14.7990   40.5414    9.0415 N.ar    1  UNL1       -0.2179
      7 C          12.6619   39.3832    9.4420 C.3     1  UNL1        0.0603
      8 C          12.1741   37.9889    9.8452 C.3     1  UNL1        0.0094
      9 C          10.6651   37.8738    9.6428 C.3     1  UNL1        0.0220
     10 C          10.3151   38.1649    8.1874 C.3     1  UNL1        0.0937
     11 C          12.2739   39.7007    7.9965 C.3     1  UNL1        0.0996
     12 C          10.0384   40.4626    7.1433 C.2     1  UNL1        0.2505
     13 N          10.8428   39.4753    7.8142 N.am    1  UNL1       -0.2757
     14 O          10.6067   41.3230    6.4157 O.2     1  UNL1       -0.2699
     15 C           8.5643   40.5149    7.2860 C.ar    1  UNL1        0.0727
     16 C           7.7431   40.0108    6.2676 C.ar    1  UNL1        0.1034
     17 C           5.7881   40.6378    7.4596 C.ar    1  UNL1        0.0989
     18 C           6.5627   41.1636    8.4943 C.ar    1  UNL1        0.0208
     19 C           7.9537   41.1035    8.4007 C.ar    1  UNL1        0.0077
     20 N           6.3888   40.0786    6.3757 N.ar    1  UNL1       -0.2422
     21 N          16.7916   41.7960    8.5383 N.pl3   1  UNL1       -0.2682
     22 H          17.7368   41.9504    8.7663 H       1  UNL1        0.1565
     23 C          18.2630   44.1463    7.7005 C.3     1  UNL1        0.0340
     24 C          16.9070   43.8328    7.1674 C.ar    1  UNL1        0.0099
     25 C          16.2033   42.6895    7.5811 C.ar    1  UNL1        0.1302
     26 C          14.3862   43.2708    6.1548 C.ar    1  UNL1        0.1003
     27 C          15.0575   44.4151    5.7232 C.ar    1  UNL1        0.0204
     28 C          16.3248   44.6938    6.2353 C.ar    1  UNL1        0.0001
     29 N          14.9665   42.4423    7.0636 N.ar    1  UNL1       -0.2293
@<TRIPOS>BOND
     1    23    24    1
     2    25    29   ar
     3    25    21    1
     4    26    27   ar
     5    28    24   ar
     6     1     6   ar
     7     2     5   ar
     8     3     4   ar
     9     7     4    1
    10     7     8    1
    11     8     9    1
    12     9    10    1
    13    10    13    1
    14    11    13    1
    15    11     7    1
    16    12    15    1
    17    16    20   ar
    18    17    18   ar
    19    19    15   ar
    20    21     1    1
    21    13    12   am
    22    24    25   ar
    23    26    29   ar
    24    27    28   ar
    25     1     5   ar
    26     2     3   ar
    27     4     6   ar
    28    12    14    2
    29    15    16   ar
    30    17    20   ar
    31    18    19   ar
    32    21    22    1
@<TRIPOS>MOLECULE
Molport-020-295-207 MCULE-7020605254 PubChem-110267298
 29 32 0 0 0
SMALL
GASTEIGER

@<TRIPOS>ATOM
      1 C          13.5019   40.9839    8.8405 C.ar    1  UNL1        0.2214
      2 C          13.2391   39.8229   10.8869 C.ar    1  UNL1        0.1031
      3 C          11.9488   40.3296   11.0219 C.ar    1  UNL1        0.0356
      4 C          11.4589   41.1794   10.0241 C.ar    1  UNL1        0.0647
      5 N          13.9890   40.1563    9.8050 N.ar    1  UNL1       -0.2120
      6 N          12.2442   41.4861    8.9581 N.ar    1  UNL1       -0.2179
      7 C          10.0814   41.7557   10.1064 C.3     1  UNL1        0.0603
      8 C           9.5226   41.6514   11.5281 C.3     1  UNL1        0.0094
      9 C           8.1212   42.2541   11.5947 C.3     1  UNL1        0.0220
     10 C           7.2052   41.5431   10.6043 C.3     1  UNL1        0.0937
     11 C           9.1443   41.0842    9.1006 C.3     1  UNL1        0.0996
     12 C           7.0313   42.0184    8.1164 C.2     1  UNL1        0.2505
     13 N           7.7918   41.6085    9.2677 N.am    1  UNL1       -0.2757
     14 O           7.3755   41.6016    6.9760 O.2     1  UNL1       -0.2699
     15 C           5.8637   42.9251    8.2189 C.ar    1  UNL1        0.0727
     16 C           4.7414   42.5411    8.9662 C.ar    1  UNL1        0.1034
     17 C           3.6109   44.5510    8.4024 C.ar    1  UNL1        0.0989
     18 C           4.6987   44.9723    7.6367 C.ar    1  UNL1        0.0208
     19 C           5.8237   44.1520    7.5443 C.ar    1  UNL1        0.0077
     20 N           3.6531   43.3534    9.0445 N.ar    1  UNL1       -0.2422
     21 N          14.2900   41.3359    7.6971 N.pl3   1  UNL1       -0.2682
     22 H          14.0520   40.9044    6.8448 H       1  UNL1        0.1565
     23 C          14.1400   43.6817    6.0044 C.3     1  UNL1        0.0340
     24 C          15.3313   43.3962    6.8534 C.ar    1  UNL1        0.0099
     25 C          15.3922   42.2553    7.6706 C.ar    1  UNL1        0.1302
     26 C          17.5592   42.8919    8.4275 C.ar    1  UNL1        0.1003
     27 C          17.5314   44.0340    7.6268 C.ar    1  UNL1        0.0204
     28 C          16.4091   44.2834    6.8368 C.ar    1  UNL1        0.0001
     29 N          16.5016   42.0371    8.4323 N.ar    1  UNL1       -0.2293
@<TRIPOS>BOND
     1    23    24    1
     2    25    29   ar
     3    25    21    1
     4    26    27   ar
     5    28    24   ar
     6     1     6   ar
     7     2     5   ar
     8     3     4   ar
     9     7     4    1
    10     7     8    1
    11     8     9    1
    12     9    10    1
    13    10    13    1
    14    11    13    1
    15    11     7    1
    16    12    15    1
    17    16    20   ar
    18    17    18   ar
    19    19    15   ar
    20    21     1    1
    21    13    12   am
    22    24    25   ar
    23    26    29   ar
    24    27    28   ar
    25     1     5   ar
    26     2     3   ar
    27     4     6   ar
    28    12    14    2
    29    15    16   ar
    30    17    20   ar
    31    18    19   ar
    32    21    22    1
@<TRIPOS>MOLECULE
Molport-020-295-207 MCULE-7020605254 PubChem-110267298
 29 32 0 0 0
SMALL
GASTEIGER

@<TRIPOS>ATOM
      1 C          14.3218   40.7161    9.1557 C.ar    1  UNL1        0.2214
      2 C          13.6546   39.5993   11.1336 C.ar    1  UNL1        0.1031
      3 C          12.3155   39.8216   10.8210 C.ar    1  UNL1        0.0356
      4 C          12.0122   40.5103    9.6414 C.ar    1  UNL1        0.0647
      5 N          14.6289   40.0473   10.3006 N.ar    1  UNL1       -0.2120
      6 N          13.0196   40.9404    8.8369 N.ar    1  UNL1       -0.2179
      7 C          10.5955   40.7799    9.2455 C.3     1  UNL1        0.0603
      8 C          10.1850   39.9245    8.0438 C.3     1  UNL1        0.0094
      9 C           8.7336   40.2055    7.6614 C.3     1  UNL1        0.0220
     10 C           8.5590   41.6881    7.3499 C.3     1  UNL1        0.0937
     11 C          10.3796   42.2668    8.9568 C.3     1  UNL1        0.0996
     12 C           8.2207   43.5462    9.0465 C.2     1  UNL1        0.2505
     13 N           9.0124   42.4803    8.4907 N.am    1  UNL1       -0.2757
     14 O           8.8025   44.4904    9.6487 O.2     1  UNL1       -0.2699
     15 C           6.7421   43.5698    8.9493 C.ar    1  UNL1        0.0727
     16 C           5.9778   42.6349    9.6615 C.ar    1  UNL1        0.1034
     17 C           3.9645   43.5161    8.7639 C.ar    1  UNL1        0.0989
     18 C           4.6818   44.4588    8.0263 C.ar    1  UNL1        0.0208
     19 C           6.0740   44.4788    8.1192 C.ar    1  UNL1        0.0077
     20 N           4.6215   42.6297    9.5582 N.ar    1  UNL1       -0.2422
     21 N          15.3476   41.1883    8.2740 N.pl3   1  UNL1       -0.2682
     22 H          16.1811   40.6653    8.2434 H       1  UNL1        0.1565
     23 C          17.4069   43.2146    8.4835 C.3     1  UNL1        0.0340
     24 C          16.2735   43.3378    7.5236 C.ar    1  UNL1        0.0099
     25 C          15.2809   42.3481    7.4309 C.ar    1  UNL1        0.1302
     26 C          14.1774   43.5904    5.7241 C.ar    1  UNL1        0.1003
     27 C          15.1462   44.5921    5.7911 C.ar    1  UNL1        0.0204
     28 C          16.1982   44.4609    6.6976 C.ar    1  UNL1        0.0001
     29 N          14.2644   42.5028    6.5356 N.ar    1  UNL1       -0.2293
@<TRIPOS>BOND
     1    23    24    1
     2    25    29   ar
     3    25    21    1
     4    26    27   ar
     5    28    24   ar
     6     1     6   ar
     7     2     5   ar
     8     3     4   ar
     9     7     4    1
    10     7     8    1
    11     8     9    1
    12     9    10    1
    13    10    13    1
    14    11    13    1
    15    11     7    1
    16    12    15    1
    17    16    20   ar
    18    17    18   ar
    19    19    15   ar
    20    21     1    1
    21    13    12   am
    22    24    25   ar
    23    26    29   ar
    24    27    28   ar
    25     1     5   ar
    26     2     3   ar
    27     4     6   ar
    28    12    14    2
    29    15    16   ar
    30    17    20   ar
    31    18    19   ar
    32    21    22    1
@<TRIPOS>MOLECULE
Molport-020-295-207 MCULE-7020605254 PubChem-110267298
 29 32 0 0 0
SMALL
GASTEIGER

@<TRIPOS>ATOM
      1 C          15.0914   40.5539    9.2870 C.ar    1  UNL1        0.2214
      2 C          14.8430   39.1255   11.1584 C.ar    1  UNL1        0.1031
      3 C          13.4650   39.0861   10.9600 C.ar    1  UNL1        0.0356
      4 C          12.9249   39.8098    9.8911 C.ar    1  UNL1        0.0647
      5 N          15.6281   39.8539   10.3236 N.ar    1  UNL1       -0.2120
      6 N          13.7483   40.5250    9.0803 N.ar    1  UNL1       -0.2179
      7 C          11.4541   39.8083    9.6205 C.3     1  UNL1        0.0603
      8 C          11.1405   39.1515    8.2734 C.3     1  UNL1        0.0094
      9 C           9.6347   39.1496    8.0199 C.3     1  UNL1        0.0220
     10 C           9.1025   40.5781    8.0576 C.3     1  UNL1        0.0937
     11 C          10.8829   41.2262    9.6830 C.3     1  UNL1        0.0996
     12 C           8.5080   41.9015   10.1411 C.2     1  UNL1        0.2505
     13 N           9.4664   41.1982    9.3295 N.am    1  UNL1       -0.2757
     14 O           8.9136   42.8096   10.9180 O.2     1  UNL1       -0.2699
     15 C           7.0597   41.5892   10.1082 C.ar    1  UNL1        0.0727
     16 C           6.3721   41.5805    8.8865 C.ar    1  UNL1        0.1034
     17 C           4.3268   41.0729    9.9795 C.ar    1  UNL1        0.0989
     18 C           4.9641   41.0817   11.2208 C.ar    1  UNL1        0.0208
     19 C           6.3331   41.3452   11.2805 C.ar    1  UNL1        0.0077
     20 N           5.0371   41.3222    8.8474 N.ar    1  UNL1       -0.2422
     21 N          15.9174   41.3218    8.4034 N.pl3   1  UNL1       -0.2682
     22 H          16.8804   41.1171    8.4070 H       1  UNL1        0.1565
     23 C          17.4853   43.7466    8.1742 C.3     1  UNL1        0.0340
     24 C          16.2322   43.5406    7.3941 C.ar    1  UNL1        0.0099
     25 C          15.4804   42.3599    7.5135 C.ar    1  UNL1        0.1302
     26 C          13.9059   43.1815    5.9260 C.ar    1  UNL1        0.1003
     27 C          14.6284   44.3665    5.7843 C.ar    1  UNL1        0.0204
     28 C          15.7975   44.5427    6.5247 C.ar    1  UNL1        0.0001
     29 N          14.3421   42.2151    6.7774 N.ar    1  UNL1       -0.2293
@<TRIPOS>BOND
     1    23    24    1
     2    25    29   ar
     3    25    21    1
     4    26    27   ar
     5    28    24   ar
     6     1     6   ar
     7     2     5   ar
     8     3     4   ar
     9     7     4    1
    10     7     8    1
    11     8     9    1
    12     9    10    1
    13    10    13    1
    14    11    13    1
    15    11     7    1
    16    12    15    1
    17    16    20   ar
    18    17    18   ar
    19    19    15   ar
    20    21     1    1
    21    13    12   am
    22    24    25   ar
    23    26    29   ar
    24    27    28   ar
    25     1     5   ar
    26     2     3   ar
    27     4     6   ar
    28    12    14    2
    29    15    16   ar
    30    17    20   ar
    31    18    19   ar
    32    21    22    1
