@<TRIPOS>MOLECULE
MolPort-002-790-936 CSC007976600 CSSS00007976600 LN01161734 MCULE-1365855620 PubChem-17161525
 21 21 0 0 0
SMALL
GASTEIGER

@<TRIPOS>ATOM
      1 C          14.7712   42.3447    7.3322 C.ar    1  UNL1        0.1396
      2 C          15.2378   43.6100    6.9420 C.ar    1  UNL1        0.0370
      3 C          16.4980   44.0514    7.3513 C.ar    1  UNL1        0.0044
      4 C          17.2980   43.2320    8.1514 C.ar    1  UNL1        0.0149
      5 C          16.8432   41.9656    8.5480 C.ar    1  UNL1        0.0533
      6 C          15.5793   41.5314    8.1333 C.ar    1  UNL1        0.0515
      7 C          17.1738   39.9603   10.1100 C.2     1  UNL1        0.2267
      8 O          15.9611   39.6203   10.0983 O.2     1  UNL1       -0.2748
      9 N          17.6360   41.0964    9.3679 N.am    1  UNL1       -0.2838
     10 H          18.5971   41.3010    9.4272 H       1  UNL1        0.1549
     11 C          18.1426   39.1821   10.9339 C.3     1  UNL1        0.0970
     12 C          18.7650   38.0558   10.1199 C.3     1  UNL1        0.1189
     13 C          18.0930   36.7526   10.3974 C.2     1  UNL1        0.3143
     14 O          16.7649   36.5706   10.0373 O.3     1  UNL1       -0.4802
     15 O          18.7215   35.8226   10.9674 O.2     1  UNL1       -0.2503
     16 H          16.2956   37.2617    9.6129 H       1  UNL1        0.2951
     17 O          13.5145   41.8742    6.9405 O.3     1  UNL1       -0.4791
     18 C          12.6992   41.0656    7.7809 C.3     1  UNL1        0.1660
     19 C          11.8890   41.9562    8.6996 C.3     1  UNL1        0.0472
     20 C          11.4120   40.9562    5.6533 C.3     1  UNL1        0.0038
     21 C          11.7573   40.2264    6.9369 C.3     1  UNL1        0.0435
@<TRIPOS>BOND
     1    20    21    1
     2    18    21    1
     3    18    19    1
     4    18    17    1
     5     1    17    1
     6     2     3   ar
     7     4     5   ar
     8     5     9    1
     9    11     7    1
    10    11    12    1
    11    12    13    1
    12    13    14    1
    13     6     1   ar
    14     9     7   am
    15     1     2   ar
    16     3     4   ar
    17     5     6   ar
    18     7     8    2
    19    13    15    2
    20    14    16    1
    21     9    10    1
@<TRIPOS>MOLECULE
MolPort-002-790-936 CSC007976600 CSSS00007976600 LN01161734 MCULE-1365855620 PubChem-17161525
 21 21 0 0 0
SMALL
GASTEIGER

@<TRIPOS>ATOM
      1 C          10.7455   41.7612    9.0002 C.ar    1  UNL1        0.1396
      2 C          11.1437   42.9811    9.5697 C.ar    1  UNL1        0.0370
      3 C          10.2123   43.7865   10.2287 C.ar    1  UNL1        0.0044
      4 C           8.8796   43.3779   10.3224 C.ar    1  UNL1        0.0149
      5 C           8.4692   42.1612    9.7575 C.ar    1  UNL1        0.0533
      6 C           9.4091   41.3606    9.0991 C.ar    1  UNL1        0.0515
      7 C           6.3601   41.4469   11.0272 C.2     1  UNL1        0.2267
      8 O           6.8697   41.6036   12.1684 O.2     1  UNL1       -0.2748
      9 N           7.1108   41.7082    9.8342 N.am    1  UNL1       -0.2838
     10 H           6.6456   41.5615    8.9791 H       1  UNL1        0.1549
     11 C           4.9577   40.9536   10.9149 C.3     1  UNL1        0.0970
     12 C           4.4381   41.1149    9.4928 C.3     1  UNL1        0.1189
     13 C           2.9889   41.4711    9.4834 C.2     1  UNL1        0.3143
     14 O           2.1546   40.9418    8.5086 O.3     1  UNL1       -0.4802
     15 O           2.5229   42.2587   10.3479 O.2     1  UNL1       -0.2503
     16 H           2.4999   40.3554    7.8644 H       1  UNL1        0.2951
     17 O          11.6528   40.9330    8.3331 O.3     1  UNL1       -0.4791
     18 C          12.4433   39.9590    9.0048 C.3     1  UNL1        0.1660
     19 C          13.9074   40.2169    8.7163 C.3     1  UNL1        0.0472
     20 C          13.4419   39.5924   11.2551 C.3     1  UNL1        0.0038
     21 C          12.2049   40.0410   10.5015 C.3     1  UNL1        0.0435
@<TRIPOS>BOND
     1    20    21    1
     2    18    21    1
     3    18    19    1
     4    18    17    1
     5     1    17    1
     6     2     3   ar
     7     4     5   ar
     8     5     9    1
     9    11     7    1
    10    11    12    1
    11    12    13    1
    12    13    14    1
    13     6     1   ar
    14     9     7   am
    15     1     2   ar
    16     3     4   ar
    17     5     6   ar
    18     7     8    2
    19    13    15    2
    20    14    16    1
    21     9    10    1
@<TRIPOS>MOLECULE
MolPort-002-790-936 CSC007976600 CSSS00007976600 LN01161734 MCULE-1365855620 PubChem-17161525
 21 21 0 0 0
SMALL
GASTEIGER

@<TRIPOS>ATOM
      1 C          14.4766   40.6790    9.1296 C.ar    1  UNL1        0.1396
      2 C          14.6314   39.9414   10.3141 C.ar    1  UNL1        0.0370
      3 C          13.5200   39.6379   11.1034 C.ar    1  UNL1        0.0044
      4 C          12.2494   40.0689   10.7141 C.ar    1  UNL1        0.0149
      5 C          12.0816   40.8067    9.5328 C.ar    1  UNL1        0.0533
      6 C          13.2006   41.1062    8.7480 C.ar    1  UNL1        0.0515
      7 C          10.2399   42.5734    9.2933 C.2     1  UNL1        0.2267
      8 O          10.8825   43.4734    9.8963 O.2     1  UNL1       -0.2748
      9 N          10.7936   41.2653    9.1003 N.am    1  UNL1       -0.2838
     10 H          10.2314   40.6143    8.6213 H       1  UNL1        0.1549
     11 C           8.8656   42.8662    8.7949 C.3     1  UNL1        0.0970
     12 C           8.6218   42.1948    7.4502 C.3     1  UNL1        0.1189
     13 C           7.2754   42.5422    6.9083 C.2     1  UNL1        0.3143
     14 O           6.1456   42.3484    7.6909 O.3     1  UNL1       -0.4802
     15 O           7.1592   42.9983    5.7407 O.2     1  UNL1       -0.2503
     16 H           6.2304   42.0090    8.5602 H       1  UNL1        0.2951
     17 O          15.5688   41.0002    8.3183 O.3     1  UNL1       -0.4791
     18 C          16.1945   42.2780    8.3404 C.3     1  UNL1        0.1660
     19 C          17.6978   42.0989    8.3747 C.3     1  UNL1        0.0472
     20 C          16.9896   43.8854    6.6143 C.3     1  UNL1        0.0038
     21 C          15.8111   43.0641    7.0999 C.3     1  UNL1        0.0435
@<TRIPOS>BOND
     1    20    21    1
     2    18    21    1
     3    18    19    1
     4    18    17    1
     5     1    17    1
     6     2     3   ar
     7     4     5   ar
     8     5     9    1
     9    11     7    1
    10    11    12    1
    11    12    13    1
    12    13    14    1
    13     6     1   ar
    14     9     7   am
    15     1     2   ar
    16     3     4   ar
    17     5     6   ar
    18     7     8    2
    19    13    15    2
    20    14    16    1
    21     9    10    1
@<TRIPOS>MOLECULE
MolPort-002-790-936 CSC007976600 CSSS00007976600 LN01161734 MCULE-1365855620 PubChem-17161525
 21 21 0 0 0
SMALL
GASTEIGER

@<TRIPOS>ATOM
      1 C           6.0169   42.3014    8.6658 C.ar    1  UNL1        0.1396
      2 C           5.7292   43.5307    8.0518 C.ar    1  UNL1        0.0370
      3 C           6.3436   43.8750    6.8458 C.ar    1  UNL1        0.0044
      4 C           7.2476   42.9939    6.2473 C.ar    1  UNL1        0.0149
      5 C           7.5435   41.7626    6.8508 C.ar    1  UNL1        0.0533
      6 C           6.9233   41.4258    8.0590 C.ar    1  UNL1        0.0515
      7 C           9.8925   40.8424    6.3968 C.2     1  UNL1        0.2267
      8 O          10.4812   41.7252    7.0755 O.2     1  UNL1       -0.2748
      9 N           8.4649   40.8323    6.2662 N.am    1  UNL1       -0.2838
     10 H           8.0770   40.1120    5.7184 H       1  UNL1        0.1549
     11 C          10.6982   39.8040    5.6929 C.3     1  UNL1        0.0970
     12 C          10.5839   39.9602    4.1827 C.3     1  UNL1        0.1189
     13 C           9.7111   38.9025    3.5940 C.2     1  UNL1        0.3143
     14 O           9.9004   37.5744    3.9502 O.3     1  UNL1       -0.4802
     15 O           8.8126   39.2082    2.7669 O.2     1  UNL1       -0.2503
     16 H          10.5687   37.3451    4.5657 H       1  UNL1        0.2951
     17 O           5.4198   41.9278    9.8733 O.3     1  UNL1       -0.4791
     18 C           4.0543   42.1946   10.1715 C.3     1  UNL1        0.1660
     19 C           3.1721   41.4094    9.2235 C.3     1  UNL1        0.0472
     20 C           3.9817   40.2969   11.7805 C.3     1  UNL1        0.0038
     21 C           3.7462   41.7839   11.5998 C.3     1  UNL1        0.0435
@<TRIPOS>BOND
     1    20    21    1
     2    18    21    1
     3    18    19    1
     4    18    17    1
     5     1    17    1
     6     2     3   ar
     7     4     5   ar
     8     5     9    1
     9    11     7    1
    10    11    12    1
    11    12    13    1
    12    13    14    1
    13     6     1   ar
    14     9     7   am
    15     1     2   ar
    16     3     4   ar
    17     5     6   ar
    18     7     8    2
    19    13    15    2
    20    14    16    1
    21     9    10    1
@<TRIPOS>MOLECULE
MolPort-002-790-936 CSC007976600 CSSS00007976600 LN01161734 MCULE-1365855620 PubChem-17161525
 21 21 0 0 0
SMALL
GASTEIGER

@<TRIPOS>ATOM
      1 C          10.7351   41.2541    8.9345 C.ar    1  UNL1        0.1396
      2 C          11.2308   42.4328    9.5142 C.ar    1  UNL1        0.0370
      3 C          10.3721   43.2924   10.2029 C.ar    1  UNL1        0.0044
      4 C           9.0153   42.9795   10.3161 C.ar    1  UNL1        0.0149
      5 C           8.5078   41.8048    9.7412 C.ar    1  UNL1        0.0533
      6 C           9.3752   40.9493    9.0531 C.ar    1  UNL1        0.0515
      7 C           6.3383   41.3693   11.0350 C.2     1  UNL1        0.2267
      8 O           6.8401   41.6183   12.1631 O.2     1  UNL1       -0.2748
      9 N           7.1218   41.4496    9.8373 N.am    1  UNL1       -0.2838
     10 H           6.6606   41.2392    8.9933 H       1  UNL1        0.1549
     11 C           4.9085   40.9562   10.9467 C.3     1  UNL1        0.0970
     12 C           4.4086   41.0355    9.5107 C.3     1  UNL1        0.1189
     13 C           3.0000   41.5253    9.4544 C.2     1  UNL1        0.3143
     14 O           2.1069   40.9560    8.5573 O.3     1  UNL1       -0.4802
     15 O           2.6222   42.4603   10.2080 O.2     1  UNL1       -0.2503
     16 H           2.3865   40.2600    7.9957 H       1  UNL1        0.2951
     17 O          11.5680   40.3737    8.2379 O.3     1  UNL1       -0.4791
     18 C          12.3301   40.7702    7.1035 C.3     1  UNL1        0.1660
     19 C          11.4143   41.4201    6.0874 C.3     1  UNL1        0.0472
     20 C          13.7827   42.6449    6.3479 C.3     1  UNL1        0.0038
     21 C          13.4012   41.7616    7.5199 C.3     1  UNL1        0.0435
@<TRIPOS>BOND
     1    20    21    1
     2    18    21    1
     3    18    19    1
     4    18    17    1
     5     1    17    1
     6     2     3   ar
     7     4     5   ar
     8     5     9    1
     9    11     7    1
    10    11    12    1
    11    12    13    1
    12    13    14    1
    13     6     1   ar
    14     9     7   am
    15     1     2   ar
    16     3     4   ar
    17     5     6   ar
    18     7     8    2
    19    13    15    2
    20    14    16    1
    21     9    10    1
@<TRIPOS>MOLECULE
MolPort-002-790-936 CSC007976600 CSSS00007976600 LN01161734 MCULE-1365855620 PubChem-17161525
 21 21 0 0 0
SMALL
GASTEIGER

@<TRIPOS>ATOM
      1 C          11.1085   40.2721   10.3147 C.ar    1  UNL1        0.1396
      2 C          12.4396   40.1377   10.7402 C.ar    1  UNL1        0.0370
      3 C          13.4445   39.8325    9.8196 C.ar    1  UNL1        0.0044
      4 C          13.1255   39.6603    8.4705 C.ar    1  UNL1        0.0149
      5 C          11.7991   39.7919    8.0327 C.ar    1  UNL1        0.0533
      6 C          10.7988   40.0978    8.9619 C.ar    1  UNL1        0.0515
      7 C          11.2435   40.6616    5.6863 C.2     1  UNL1        0.2267
      8 O          11.3910   41.8752    5.9894 O.2     1  UNL1       -0.2748
      9 N          11.4334   39.6234    6.6564 N.am    1  UNL1       -0.2838
     10 H          11.2989   38.6990    6.3456 H       1  UNL1        0.1549
     11 C          10.8365   40.2995    4.2985 C.3     1  UNL1        0.0970
     12 C          10.8054   38.7878    4.1192 C.3     1  UNL1        0.1189
     13 C           9.6161   38.3616    3.3250 C.2     1  UNL1        0.3143
     14 O           9.3346   37.0107    3.1751 O.3     1  UNL1       -0.4802
     15 O           8.8747   39.2211    2.7805 O.2     1  UNL1       -0.2503
     16 H           9.8854   36.3697    3.5796 H       1  UNL1        0.2951
     17 O          10.0797   40.5757   11.2110 O.3     1  UNL1       -0.4791
     18 C           9.3734   41.8107   11.1822 C.3     1  UNL1        0.1660
     19 C          10.2886   42.8988   10.6607 C.3     1  UNL1        0.0472
     20 C           6.8932   41.6195   11.0976 C.3     1  UNL1        0.0038
     21 C           8.1636   41.6944   10.2731 C.3     1  UNL1        0.0435
@<TRIPOS>BOND
     1    20    21    1
     2    18    21    1
     3    18    19    1
     4    18    17    1
     5     1    17    1
     6     2     3   ar
     7     4     5   ar
     8     5     9    1
     9    11     7    1
    10    11    12    1
    11    12    13    1
    12    13    14    1
    13     6     1   ar
    14     9     7   am
    15     1     2   ar
    16     3     4   ar
    17     5     6   ar
    18     7     8    2
    19    13    15    2
    20    14    16    1
    21     9    10    1
@<TRIPOS>MOLECULE
MolPort-002-790-936 CSC007976600 CSSS00007976600 LN01161734 MCULE-1365855620 PubChem-17161525
 21 21 0 0 0
SMALL
GASTEIGER

@<TRIPOS>ATOM
      1 C          12.2298   41.6441    6.8448 C.ar    1  UNL1        0.1396
      2 C          13.0376   42.6437    6.2796 C.ar    1  UNL1        0.0370
      3 C          14.3612   42.7979    6.6979 C.ar    1  UNL1        0.0044
      4 C          14.8843   41.9554    7.6818 C.ar    1  UNL1        0.0149
      5 C          14.0873   40.9528    8.2543 C.ar    1  UNL1        0.0533
      6 C          12.7625   40.8054    7.8292 C.ar    1  UNL1        0.0515
      7 C          13.9724   39.7672   10.5240 C.2     1  UNL1        0.2267
      8 O          12.8760   40.2901   10.8572 O.2     1  UNL1       -0.2748
      9 N          14.5893   40.0687    9.2656 N.am    1  UNL1       -0.2838
     10 H          15.4463   39.6227    9.0761 H       1  UNL1        0.1549
     11 C          14.6554   38.8377   11.4687 C.3     1  UNL1        0.0970
     12 C          16.1685   38.9451   11.3365 C.3     1  UNL1        0.1189
     13 C          16.7394   37.7424   10.6623 C.2     1  UNL1        0.3143
     14 O          16.5915   37.5848    9.2912 O.3     1  UNL1       -0.4802
     15 O          17.3433   36.8650   11.3332 O.2     1  UNL1       -0.2503
     16 H          16.1423   38.2370    8.7904 H       1  UNL1        0.2951
     17 O          10.9013   41.4646    6.4489 O.3     1  UNL1       -0.4791
     18 C          10.4338   40.2640    5.8449 C.3     1  UNL1        0.1660
     19 C           8.9239   40.2068    5.9475 C.3     1  UNL1        0.0472
     20 C           9.9408   39.2792    3.6127 C.3     1  UNL1        0.0038
     21 C          10.8389   40.2279    4.3826 C.3     1  UNL1        0.0435
@<TRIPOS>BOND
     1    20    21    1
     2    18    21    1
     3    18    19    1
     4    18    17    1
     5     1    17    1
     6     2     3   ar
     7     4     5   ar
     8     5     9    1
     9    11     7    1
    10    11    12    1
    11    12    13    1
    12    13    14    1
    13     6     1   ar
    14     9     7   am
    15     1     2   ar
    16     3     4   ar
    17     5     6   ar
    18     7     8    2
    19    13    15    2
    20    14    16    1
    21     9    10    1
@<TRIPOS>MOLECULE
MolPort-002-790-936 CSC007976600 CSSS00007976600 LN01161734 MCULE-1365855620 PubChem-17161525
 21 21 0 0 0
SMALL
GASTEIGER

@<TRIPOS>ATOM
      1 C           7.9529   43.0164    8.8326 C.ar    1  UNL1        0.1396
      2 C           6.9166   43.8713    8.4249 C.ar    1  UNL1        0.0370
      3 C           6.5129   43.8989    7.0882 C.ar    1  UNL1        0.0044
      4 C           7.1414   43.0733    6.1527 C.ar    1  UNL1        0.0149
      5 C           8.1781   42.2146    6.5476 C.ar    1  UNL1        0.0533
      6 C           8.5761   42.1936    7.8888 C.ar    1  UNL1        0.0515
      7 C          10.2620   41.2126    5.4412 C.2     1  UNL1        0.2267
      8 O          11.0760   41.8795    6.1333 O.2     1  UNL1       -0.2748
      9 N           8.8461   41.3523    5.6166 N.am    1  UNL1       -0.2838
     10 H           8.2730   40.7991    5.0381 H       1  UNL1        0.1549
     11 C          10.7809   40.2800    4.4001 C.3     1  UNL1        0.0970
     12 C          10.2495   38.8703    4.6211 C.3     1  UNL1        0.1189
     13 C           9.4888   38.3863    3.4320 C.2     1  UNL1        0.3143
     14 O           9.4390   37.0279    3.1509 O.3     1  UNL1       -0.4802
     15 O           8.9029   39.2052    2.6764 O.2     1  UNL1       -0.2503
     16 H           9.8745   36.4171    3.7122 H       1  UNL1        0.2951
     17 O           8.3811   42.9661   10.1624 O.3     1  UNL1       -0.4791
     18 C           8.6518   41.7434   10.8379 C.3     1  UNL1        0.1660
     19 C          10.0587   41.7811   11.3970 C.3     1  UNL1        0.0472
     20 C           6.2629   41.3673   11.4274 C.3     1  UNL1        0.0038
     21 C           7.6651   41.5504   11.9750 C.3     1  UNL1        0.0435
@<TRIPOS>BOND
     1    20    21    1
     2    18    21    1
     3    18    19    1
     4    18    17    1
     5     1    17    1
     6     2     3   ar
     7     4     5   ar
     8     5     9    1
     9    11     7    1
    10    11    12    1
    11    12    13    1
    12    13    14    1
    13     6     1   ar
    14     9     7   am
    15     1     2   ar
    16     3     4   ar
    17     5     6   ar
    18     7     8    2
    19    13    15    2
    20    14    16    1
    21     9    10    1
@<TRIPOS>MOLECULE
MolPort-002-790-936 CSC007976600 CSSS00007976600 LN01161734 MCULE-1365855620 PubChem-17161525
 21 21 0 0 0
SMALL
GASTEIGER

@<TRIPOS>ATOM
      1 C           6.7179   42.0089    8.6187 C.ar    1  UNL1        0.1396
      2 C           6.1702   43.2514    8.2621 C.ar    1  UNL1        0.0370
      3 C           6.4125   43.7893    6.9962 C.ar    1  UNL1        0.0044
      4 C           7.2022   43.0894    6.0807 C.ar    1  UNL1        0.0149
      5 C           7.7552   41.8469    6.4249 C.ar    1  UNL1        0.0533
      6 C           7.5073   41.3156    7.6953 C.ar    1  UNL1        0.0515
      7 C          10.0012   41.1078    5.4351 C.2     1  UNL1        0.2267
      8 O          10.6938   41.8186    6.2108 O.2     1  UNL1       -0.2748
      9 N           8.5698   41.0991    5.5119 N.am    1  UNL1       -0.2838
     10 H           8.0970   40.5198    4.8715 H       1  UNL1        0.1549
     11 C          10.6826   40.2806    4.3986 C.3     1  UNL1        0.0970
     12 C          10.3934   38.8007    4.6094 C.3     1  UNL1        0.1189
     13 C           9.5600   38.2491    3.5010 C.2     1  UNL1        0.3143
     14 O           8.7334   39.0938    2.7732 O.3     1  UNL1       -0.4802
     15 O           9.5945   37.0198    3.2318 O.2     1  UNL1       -0.2503
     16 H           8.7066   40.0090    2.9723 H       1  UNL1        0.2951
     17 O           6.4952   41.4440    9.8778 O.3     1  UNL1       -0.4791
     18 C           5.2162   40.9853   10.3002 C.3     1  UNL1        0.1660
     19 C           4.6726   41.9225   11.3584 C.3     1  UNL1        0.0472
     20 C           2.8610   41.3220    9.5687 C.3     1  UNL1        0.0038
     21 C           4.2618   40.9532    9.1204 C.3     1  UNL1        0.0435
@<TRIPOS>BOND
     1    20    21    1
     2    18    21    1
     3    18    19    1
     4    18    17    1
     5     1    17    1
     6     2     3   ar
     7     4     5   ar
     8     5     9    1
     9    11     7    1
    10    11    12    1
    11    12    13    1
    12    13    14    1
    13     6     1   ar
    14     9     7   am
    15     1     2   ar
    16     3     4   ar
    17     5     6   ar
    18     7     8    2
    19    13    15    2
    20    14    16    1
    21     9    10    1
@<TRIPOS>MOLECULE
MolPort-002-790-936 CSC007976600 CSSS00007976600 LN01161734 MCULE-1365855620 PubChem-17161525
 21 21 0 0 0
SMALL
GASTEIGER

@<TRIPOS>ATOM
      1 C          15.0599   41.7491    7.9893 C.ar    1  UNL1        0.1396
      2 C          15.8994   42.7040    7.3940 C.ar    1  UNL1        0.0370
      3 C          15.4296   43.4960    6.3441 C.ar    1  UNL1        0.0044
      4 C          14.1200   43.3388    5.8838 C.ar    1  UNL1        0.0149
      5 C          13.2712   42.3882    6.4703 C.ar    1  UNL1        0.0533
      6 C          13.7502   41.5989    7.5217 C.ar    1  UNL1        0.0515
      7 C          11.1968   40.9622    5.9865 C.2     1  UNL1        0.2267
      8 O          11.7255   39.8821    6.3610 O.2     1  UNL1       -0.2748
      9 N          11.9211   42.1987    6.0257 N.am    1  UNL1       -0.2838
     10 H          11.4420   43.0008    5.7154 H       1  UNL1        0.1549
     11 C           9.7997   40.9498    5.4662 C.3     1  UNL1        0.0970
     12 C           9.3642   39.5337    5.1150 C.3     1  UNL1        0.1189
     13 C           9.7438   39.1824    3.7152 C.2     1  UNL1        0.3143
     14 O          11.0192   38.7060    3.4450 O.3     1  UNL1       -0.4802
     15 O           8.9166   39.3278    2.7774 O.2     1  UNL1       -0.2503
     16 H          11.6360   38.5971    4.1419 H       1  UNL1        0.2951
     17 O          15.5001   40.9401    9.0409 O.3     1  UNL1       -0.4791
     18 C          14.8569   39.7213    9.3955 C.3     1  UNL1        0.1660
     19 C          15.8924   38.7358    9.8954 C.3     1  UNL1        0.0472
     20 C          14.0560   39.0162   11.6443 C.3     1  UNL1        0.0038
     21 C          13.8355   39.9739   10.4894 C.3     1  UNL1        0.0435
@<TRIPOS>BOND
     1    20    21    1
     2    18    21    1
     3    18    19    1
     4    18    17    1
     5     1    17    1
     6     2     3   ar
     7     4     5   ar
     8     5     9    1
     9    11     7    1
    10    11    12    1
    11    12    13    1
    12    13    14    1
    13     6     1   ar
    14     9     7   am
    15     1     2   ar
    16     3     4   ar
    17     5     6   ar
    18     7     8    2
    19    13    15    2
    20    14    16    1
    21     9    10    1
