@<TRIPOS>MOLECULE
MolPort-002-191-102 2969362 CHEMBL1529339 CSSS00104853224 ChemDiv-8010-5151 MCULE-9329842742 PubChem-2274746 ZINC000002969362 ZINC02969362
 23 24 0 0 0
SMALL
GASTEIGER

@<TRIPOS>ATOM
      1 C          12.7514   41.2101    9.1758 C.2     1  UNL1        0.2376
      2 O          12.8830   40.1915    9.9047 O.2     1  UNL1       -0.2738
      3 N          11.5865   42.0411    9.2606 N.am    1  UNL1       -0.2831
      4 H          11.5597   42.8258    8.6667 H       1  UNL1        0.1549
      5 C           8.0475   41.9721   10.4358 C.ar    1  UNL1        0.1398
      6 C           8.1987   41.4892   11.7453 C.ar    1  UNL1        0.0370
      7 C           9.4691   41.1867   12.2407 C.ar    1  UNL1        0.0044
      8 C          10.5939   41.3649   11.4315 C.ar    1  UNL1        0.0149
      9 C          10.4559   41.8474   10.1214 C.ar    1  UNL1        0.0534
     10 C           9.1796   42.1473    9.6332 C.ar    1  UNL1        0.0515
     11 O           6.7910   42.2849    9.9103 O.3     1  UNL1       -0.4754
     12 C           6.6185   43.1381    8.7854 C.3     1  UNL1        0.2054
     13 C           5.1432   43.4411    8.5748 C.3     1  UNL1        0.0473
     14 C           3.4991   45.1161    7.7231 C.3     1  UNL1        0.0001
     15 C           4.9534   44.6851    7.7219 C.3     1  UNL1        0.0038
     16 C          13.8180   41.5458    8.1926 C.3     1  UNL1        0.1501
     17 S          13.0845   41.9646    6.5812 S.3     1  UNL1       -0.0658
     18 C          14.1960   43.3466    6.3195 C.ar    1  UNL1        0.1938
     19 C          15.8906   44.6257    6.3811 C.ar    1  UNL1        0.2031
     20 C          16.1458   42.4874    7.6553 C.3     1  UNL1        0.1341
     21 N          13.8835   44.4329    5.5935 N.ar    1  UNL1       -0.1220
     22 N          14.9433   45.2297    5.6322 N.ar    1  UNL1       -0.1250
     23 N          15.4361   43.4416    6.8221 N.ar    1  UNL1       -0.2860
@<TRIPOS>BOND
     1    14    15    1
     2    15    13    1
     3    13    12    1
     4    12    11    1
     5     5    11    1
     6     6     7   ar
     7     8     9   ar
     8     9     3    1
     9    16     1    1
    10    16    17    1
    11    18    17    1
    12    19    23   ar
    13    20    23    1
    14    10     5   ar
    15     3     1   am
    16    21    22   ar
    17    23    18   ar
    18     5     6   ar
    19     7     8   ar
    20     9    10   ar
    21     1     2    2
    22    18    21   ar
    23    19    22   ar
    24     3     4    1
@<TRIPOS>MOLECULE
MolPort-002-191-102 2969362 CHEMBL1529339 CSSS00104853224 ChemDiv-8010-5151 MCULE-9329842742 PubChem-2274746 ZINC000002969362 ZINC02969362
 23 24 0 0 0
SMALL
GASTEIGER

@<TRIPOS>ATOM
      1 C           9.9448   43.1390    9.6866 C.2     1  UNL1        0.2376
      2 O          10.6819   43.8806   10.3888 O.2     1  UNL1       -0.2738
      3 N          10.4859   42.0369    8.9467 N.am    1  UNL1       -0.2831
      4 H           9.8463   41.4960    8.4294 H       1  UNL1        0.1549
      5 C          14.0268   41.8445    7.7913 C.ar    1  UNL1        0.1398
      6 C          14.5653   40.9180    8.6982 C.ar    1  UNL1        0.0370
      7 C          13.7594   40.3564    9.6911 C.ar    1  UNL1        0.0044
      8 C          12.4128   40.7168    9.7831 C.ar    1  UNL1        0.0149
      9 C          11.8627   41.6410    8.8823 C.ar    1  UNL1        0.0534
     10 C          12.6774   42.1989    7.8912 C.ar    1  UNL1        0.0515
     11 O          14.8056   42.4240    6.7860 O.3     1  UNL1       -0.4754
     12 C          14.7343   43.8062    6.4586 C.3     1  UNL1        0.2054
     13 C          16.1313   44.4017    6.3781 C.3     1  UNL1        0.0473
     14 C          17.4679   43.8081    8.4018 C.3     1  UNL1        0.0001
     15 C          17.1680   43.4529    6.9580 C.3     1  UNL1        0.0038
     16 C           8.4858   43.4256    9.6079 C.3     1  UNL1        0.1501
     17 S           7.8446   42.9972    7.9601 S.3     1  UNL1       -0.0658
     18 C           6.1622   43.4473    8.3854 C.ar    1  UNL1        0.1938
     19 C           4.1392   43.3564    9.0261 C.ar    1  UNL1        0.2031
     20 C           5.3667   41.1781    9.1217 C.3     1  UNL1        0.1341
     21 N           5.6656   44.6899    8.2660 N.ar    1  UNL1       -0.1220
     22 N           4.4028   44.6313    8.6676 N.ar    1  UNL1       -0.1250
     23 N           5.2344   42.5990    8.8532 N.ar    1  UNL1       -0.2860
@<TRIPOS>BOND
     1    14    15    1
     2    15    13    1
     3    13    12    1
     4    12    11    1
     5     5    11    1
     6     6     7   ar
     7     8     9   ar
     8     9     3    1
     9    16     1    1
    10    16    17    1
    11    18    17    1
    12    19    23   ar
    13    20    23    1
    14    10     5   ar
    15     3     1   am
    16    21    22   ar
    17    23    18   ar
    18     5     6   ar
    19     7     8   ar
    20     9    10   ar
    21     1     2    2
    22    18    21   ar
    23    19    22   ar
    24     3     4    1
@<TRIPOS>MOLECULE
MolPort-002-191-102 2969362 CHEMBL1529339 CSSS00104853224 ChemDiv-8010-5151 MCULE-9329842742 PubChem-2274746 ZINC000002969362 ZINC02969362
 23 24 0 0 0
SMALL
GASTEIGER

@<TRIPOS>ATOM
      1 C          11.8108   41.6792    7.3273 C.2     1  UNL1        0.2376
      2 O          11.9562   42.1614    8.4817 O.2     1  UNL1       -0.2738
      3 N          12.7371   41.9757    6.2743 N.am    1  UNL1       -0.2831
      4 H          12.5637   41.5536    5.4019 H       1  UNL1        0.1549
      5 C          16.1473   43.1708    7.1979 C.ar    1  UNL1        0.1398
      6 C          16.1822   44.4252    6.5685 C.ar    1  UNL1        0.0370
      7 C          15.0798   44.8769    5.8395 C.ar    1  UNL1        0.0044
      8 C          13.9379   44.0788    5.7355 C.ar    1  UNL1        0.0149
      9 C          13.8904   42.8237    6.3604 C.ar    1  UNL1        0.0534
     10 C          14.9994   42.3789    7.0882 C.ar    1  UNL1        0.0515
     11 O          17.2326   42.6900    7.9353 O.3     1  UNL1       -0.4754
     12 C          17.0872   41.7549    8.9970 C.3     1  UNL1        0.2054
     13 C          15.7438   41.0490    8.8976 C.3     1  UNL1        0.0473
     14 C          17.0328   39.6151   10.4840 C.3     1  UNL1        0.0001
     15 C          15.6916   39.8343    9.8103 C.3     1  UNL1        0.0038
     16 C          10.6422   40.8005    7.0462 C.3     1  UNL1        0.1501
     17 S           9.9734   41.1471    5.3902 S.3     1  UNL1       -0.0658
     18 C           8.3573   40.4831    5.7921 C.ar    1  UNL1        0.1938
     19 C           6.3504   40.2988    6.4626 C.ar    1  UNL1        0.2031
     20 C           7.3266   42.5906    6.6976 C.3     1  UNL1        0.1341
     21 N           8.0029   39.2024    5.5949 N.ar    1  UNL1       -0.1220
     22 N           6.7491   39.0896    6.0130 N.ar    1  UNL1       -0.1250
     23 N           7.3502   41.1856    6.3321 N.ar    1  UNL1       -0.2860
@<TRIPOS>BOND
     1    14    15    1
     2    15    13    1
     3    13    12    1
     4    12    11    1
     5     5    11    1
     6     6     7   ar
     7     8     9   ar
     8     9     3    1
     9    16     1    1
    10    16    17    1
    11    18    17    1
    12    19    23   ar
    13    20    23    1
    14    10     5   ar
    15     3     1   am
    16    21    22   ar
    17    23    18   ar
    18     5     6   ar
    19     7     8   ar
    20     9    10   ar
    21     1     2    2
    22    18    21   ar
    23    19    22   ar
    24     3     4    1
@<TRIPOS>MOLECULE
MolPort-002-191-102 2969362 CHEMBL1529339 CSSS00104853224 ChemDiv-8010-5151 MCULE-9329842742 PubChem-2274746 ZINC000002969362 ZINC02969362
 23 24 0 0 0
SMALL
GASTEIGER

@<TRIPOS>ATOM
      1 C          10.2348   42.7717    9.5201 C.2     1  UNL1        0.2376
      2 O          10.9748   43.6190   10.0865 O.2     1  UNL1       -0.2738
      3 N          10.6481   41.4080    9.3639 N.am    1  UNL1       -0.2831
      4 H          10.0116   40.8018    8.9205 H       1  UNL1        0.1549
      5 C          14.2623   40.4871    9.3617 C.ar    1  UNL1        0.1398
      6 C          14.3621   39.7502   10.5525 C.ar    1  UNL1        0.0370
      7 C          13.2363   39.5569   11.3561 C.ar    1  UNL1        0.0044
      8 C          12.0060   40.0980   10.9748 C.ar    1  UNL1        0.0149
      9 C          11.8931   40.8357    9.7869 C.ar    1  UNL1        0.0534
     10 C          13.0261   41.0248    8.9883 C.ar    1  UNL1        0.0515
     11 O          15.3690   40.6980    8.5351 O.3     1  UNL1       -0.4754
     12 C          15.7843   41.9940    8.1217 C.3     1  UNL1        0.2054
     13 C          17.2089   42.2627    8.5812 C.3     1  UNL1        0.0473
     14 C          17.7211   44.0070    6.8696 C.3     1  UNL1        0.0001
     15 C          17.5960   43.7150    8.3528 C.3     1  UNL1        0.0038
     16 C           8.9134   43.2003    8.9844 C.3     1  UNL1        0.1501
     17 S           7.7299   41.8196    9.0397 S.3     1  UNL1       -0.0658
     18 C           6.3072   42.8985    8.8781 C.ar    1  UNL1        0.1938
     19 C           4.3141   43.6292    8.8085 C.ar    1  UNL1        0.2031
     20 C           4.5170   41.1876    9.3168 C.3     1  UNL1        0.1341
     21 N           6.3886   44.2092    8.5948 N.ar    1  UNL1       -0.1220
     22 N           5.1433   44.6638    8.5530 N.ar    1  UNL1       -0.1250
     23 N           5.0300   42.5118    9.0137 N.ar    1  UNL1       -0.2860
@<TRIPOS>BOND
     1    14    15    1
     2    15    13    1
     3    13    12    1
     4    12    11    1
     5     5    11    1
     6     6     7   ar
     7     8     9   ar
     8     9     3    1
     9    16     1    1
    10    16    17    1
    11    18    17    1
    12    19    23   ar
    13    20    23    1
    14    10     5   ar
    15     3     1   am
    16    21    22   ar
    17    23    18   ar
    18     5     6   ar
    19     7     8   ar
    20     9    10   ar
    21     1     2    2
    22    18    21   ar
    23    19    22   ar
    24     3     4    1
@<TRIPOS>MOLECULE
MolPort-002-191-102 2969362 CHEMBL1529339 CSSS00104853224 ChemDiv-8010-5151 MCULE-9329842742 PubChem-2274746 ZINC000002969362 ZINC02969362
 23 24 0 0 0
SMALL
GASTEIGER

@<TRIPOS>ATOM
      1 C           8.2050   41.6802   11.5813 C.2     1  UNL1        0.2376
      2 O           7.7831   42.1794   12.6580 O.2     1  UNL1       -0.2738
      3 N           7.3123   41.3744   10.5022 N.am    1  UNL1       -0.2831
      4 H           7.7169   40.9962    9.6883 H       1  UNL1        0.1549
      5 C           3.9800   42.8379    9.6870 C.ar    1  UNL1        0.1398
      6 C           3.1210   41.9891   10.4028 C.ar    1  UNL1        0.0370
      7 C           3.6417   40.9337   11.1550 C.ar    1  UNL1        0.0044
      8 C           5.0218   40.7210   11.1962 C.ar    1  UNL1        0.0149
      9 C           5.8907   41.5626   10.4858 C.ar    1  UNL1        0.0534
     10 C           5.3605   42.6170    9.7346 C.ar    1  UNL1        0.0515
     11 O           3.4914   43.9030    8.9257 O.3     1  UNL1       -0.4754
     12 C           4.3035   44.6332    8.0145 C.3     1  UNL1        0.2054
     13 C           5.2211   43.6894    7.2531 C.3     1  UNL1        0.0473
     14 C           7.2264   44.5806    8.4444 C.3     1  UNL1        0.0001
     15 C           6.6104   44.2850    7.0902 C.3     1  UNL1        0.0038
     16 C           9.6566   41.3835   11.4349 C.3     1  UNL1        0.1501
     17 S          10.1431   41.4517    9.6831 S.3     1  UNL1       -0.0658
     18 C          11.7744   40.7811   10.0043 C.ar    1  UNL1        0.1938
     19 C          13.8121   40.2185    9.7981 C.ar    1  UNL1        0.2031
     20 C          12.8604   41.4439    7.8351 C.3     1  UNL1        0.1341
     21 N          12.1121   40.1404   11.1358 N.ar    1  UNL1       -0.1220
     22 N          13.3850   39.7910   11.0056 N.ar    1  UNL1       -0.1250
     23 N          12.8112   40.8416    9.1554 N.ar    1  UNL1       -0.2860
@<TRIPOS>BOND
     1    14    15    1
     2    15    13    1
     3    13    12    1
     4    12    11    1
     5     5    11    1
     6     6     7   ar
     7     8     9   ar
     8     9     3    1
     9    16     1    1
    10    16    17    1
    11    18    17    1
    12    19    23   ar
    13    20    23    1
    14    10     5   ar
    15     3     1   am
    16    21    22   ar
    17    23    18   ar
    18     5     6   ar
    19     7     8   ar
    20     9    10   ar
    21     1     2    2
    22    18    21   ar
    23    19    22   ar
    24     3     4    1
@<TRIPOS>MOLECULE
MolPort-002-191-102 2969362 CHEMBL1529339 CSSS00104853224 ChemDiv-8010-5151 MCULE-9329842742 PubChem-2274746 ZINC000002969362 ZINC02969362
 23 24 0 0 0
SMALL
GASTEIGER

@<TRIPOS>ATOM
      1 C           8.9745   42.4498    8.2197 C.2     1  UNL1        0.2376
      2 O           9.1995   42.1027    7.0300 O.2     1  UNL1       -0.2738
      3 N           9.6970   41.8702    9.3138 N.am    1  UNL1       -0.2831
      4 H           9.4734   42.1995   10.2142 H       1  UNL1        0.1549
      5 C          13.0673   40.2746    9.3863 C.ar    1  UNL1        0.1398
      6 C          12.7489   38.9390    9.0935 C.ar    1  UNL1        0.0370
      7 C          11.4216   38.5651    8.8716 C.ar    1  UNL1        0.0044
      8 C          10.4065   39.5223    8.9409 C.ar    1  UNL1        0.0149
      9 C          10.7118   40.8602    9.2320 C.ar    1  UNL1        0.0534
     10 C          12.0439   41.2258    9.4534 C.ar    1  UNL1        0.0515
     11 O          14.3848   40.6816    9.6125 O.3     1  UNL1       -0.4754
     12 C          15.2279   41.1690    8.5758 C.3     1  UNL1        0.2054
     13 C          16.6567   41.3052    9.0785 C.3     1  UNL1        0.0473
     14 C          16.4235   43.2038    7.4738 C.3     1  UNL1        0.0001
     15 C          17.3459   42.5097    8.4576 C.3     1  UNL1        0.0038
     16 C           7.9233   43.4674    8.4958 C.3     1  UNL1        0.1501
     17 S           6.8353   43.6618    7.0506 S.3     1  UNL1       -0.0658
     18 C           5.3419   43.6252    8.0419 C.ar    1  UNL1        0.1938
     19 C           3.7396   42.9667    9.2708 C.ar    1  UNL1        0.2031
     20 C           5.4043   41.1940    8.6818 C.3     1  UNL1        0.1341
     21 N           4.5556   44.6939    8.2526 N.ar    1  UNL1       -0.1220
     22 N           3.5564   44.2810    9.0210 N.ar    1  UNL1       -0.1250
     23 N           4.8569   42.5387    8.6612 N.ar    1  UNL1       -0.2860
@<TRIPOS>BOND
     1    14    15    1
     2    15    13    1
     3    13    12    1
     4    12    11    1
     5     5    11    1
     6     6     7   ar
     7     8     9   ar
     8     9     3    1
     9    16     1    1
    10    16    17    1
    11    18    17    1
    12    19    23   ar
    13    20    23    1
    14    10     5   ar
    15     3     1   am
    16    21    22   ar
    17    23    18   ar
    18     5     6   ar
    19     7     8   ar
    20     9    10   ar
    21     1     2    2
    22    18    21   ar
    23    19    22   ar
    24     3     4    1
@<TRIPOS>MOLECULE
MolPort-002-191-102 2969362 CHEMBL1529339 CSSS00104853224 ChemDiv-8010-5151 MCULE-9329842742 PubChem-2274746 ZINC000002969362 ZINC02969362
 23 24 0 0 0
SMALL
GASTEIGER

@<TRIPOS>ATOM
      1 C          10.2203   41.8449    9.9415 C.2     1  UNL1        0.2376
      2 O          10.3920   43.0866   10.0643 O.2     1  UNL1       -0.2738
      3 N           9.1547   41.3159    9.1418 N.am    1  UNL1       -0.2831
      4 H           9.0903   40.3352    9.0850 H       1  UNL1        0.1549
      5 C           6.1152   43.3641    8.4516 C.ar    1  UNL1        0.1398
      6 C           6.2171   43.5542    7.0644 C.ar    1  UNL1        0.0370
      7 C           7.2891   43.0059    6.3566 C.ar    1  UNL1        0.0044
      8 C           8.2637   42.2656    7.0300 C.ar    1  UNL1        0.0149
      9 C           8.1728   42.0679    8.4159 C.ar    1  UNL1        0.0534
     10 C           7.0959   42.6212    9.1170 C.ar    1  UNL1        0.0515
     11 O           5.0551   43.8984    9.1888 O.3     1  UNL1       -0.4754
     12 C           3.6947   43.5823    8.9196 C.3     1  UNL1        0.2054
     13 C           3.3310   42.2439    9.5435 C.3     1  UNL1        0.0473
     14 C           4.0679   40.6974   11.3600 C.3     1  UNL1        0.0001
     15 C           3.8411   42.1462   10.9723 C.3     1  UNL1        0.0038
     16 C          11.1300   40.9088   10.6578 C.3     1  UNL1        0.1501
     17 S          12.6010   40.5578    9.6464 S.3     1  UNL1       -0.0658
     18 C          12.5253   38.7951    9.9651 C.ar    1  UNL1        0.1938
     19 C          12.8914   36.8615   10.7641 C.ar    1  UNL1        0.2031
     20 C          14.2709   38.6893   11.7723 C.3     1  UNL1        0.1341
     21 N          11.7093   37.9499    9.3136 N.ar    1  UNL1       -0.1220
     22 N          11.9384   36.7433    9.8147 N.ar    1  UNL1       -0.1250
     23 N          13.2721   38.1448   10.8699 N.ar    1  UNL1       -0.2860
@<TRIPOS>BOND
     1    14    15    1
     2    15    13    1
     3    13    12    1
     4    12    11    1
     5     5    11    1
     6     6     7   ar
     7     8     9   ar
     8     9     3    1
     9    16     1    1
    10    16    17    1
    11    18    17    1
    12    19    23   ar
    13    20    23    1
    14    10     5   ar
    15     3     1   am
    16    21    22   ar
    17    23    18   ar
    18     5     6   ar
    19     7     8   ar
    20     9    10   ar
    21     1     2    2
    22    18    21   ar
    23    19    22   ar
    24     3     4    1
@<TRIPOS>MOLECULE
MolPort-002-191-102 2969362 CHEMBL1529339 CSSS00104853224 ChemDiv-8010-5151 MCULE-9329842742 PubChem-2274746 ZINC000002969362 ZINC02969362
 23 24 0 0 0
SMALL
GASTEIGER

@<TRIPOS>ATOM
      1 C          11.3577   39.9598    7.5001 C.2     1  UNL1        0.2376
      2 O          10.8925   39.2668    6.5568 O.2     1  UNL1       -0.2738
      3 N          10.5798   40.9922    8.1197 N.am    1  UNL1       -0.2831
      4 H          11.0071   41.4842    8.8576 H       1  UNL1        0.1549
      5 C           6.8844   41.4329    8.3655 C.ar    1  UNL1        0.1398
      6 C           6.6060   42.1171    7.1717 C.ar    1  UNL1        0.0370
      7 C           7.6381   42.4327    6.2852 C.ar    1  UNL1        0.0044
      8 C           8.9523   42.0667    6.5861 C.ar    1  UNL1        0.0149
      9 C           9.2434   41.3822    7.7755 C.ar    1  UNL1        0.0534
     10 C           8.2035   41.0706    8.6580 C.ar    1  UNL1        0.0515
     11 O           5.8749   41.1015    9.2731 O.3     1  UNL1       -0.4754
     12 C           5.9715   41.3770   10.6652 C.3     1  UNL1        0.2054
     13 C           4.7494   40.8413   11.3947 C.3     1  UNL1        0.0473
     14 C           2.8445   41.7849   10.0848 C.3     1  UNL1        0.0001
     15 C           3.6225   40.5276   10.4235 C.3     1  UNL1        0.0038
     16 C          12.7502   39.7148    7.9667 C.3     1  UNL1        0.1501
     17 S          13.3690   41.1523    8.8943 S.3     1  UNL1       -0.0658
     18 C          14.7688   40.2501    9.5583 C.ar    1  UNL1        0.1938
     19 C          15.9895   39.0143   10.7806 C.ar    1  UNL1        0.2031
     20 C          13.6098   39.2046   11.5301 C.3     1  UNL1        0.1341
     21 N          15.9971   40.2659    9.0144 N.ar    1  UNL1       -0.1220
     22 N          16.7575   39.4928    9.7783 N.ar    1  UNL1       -0.1250
     23 N          14.7368   39.4821   10.6576 N.ar    1  UNL1       -0.2860
@<TRIPOS>BOND
     1    14    15    1
     2    15    13    1
     3    13    12    1
     4    12    11    1
     5     5    11    1
     6     6     7   ar
     7     8     9   ar
     8     9     3    1
     9    16     1    1
    10    16    17    1
    11    18    17    1
    12    19    23   ar
    13    20    23    1
    14    10     5   ar
    15     3     1   am
    16    21    22   ar
    17    23    18   ar
    18     5     6   ar
    19     7     8   ar
    20     9    10   ar
    21     1     2    2
    22    18    21   ar
    23    19    22   ar
    24     3     4    1
@<TRIPOS>MOLECULE
MolPort-002-191-102 2969362 CHEMBL1529339 CSSS00104853224 ChemDiv-8010-5151 MCULE-9329842742 PubChem-2274746 ZINC000002969362 ZINC02969362
 23 24 0 0 0
SMALL
GASTEIGER

@<TRIPOS>ATOM
      1 C          10.3840   41.7290    9.5684 C.2     1  UNL1        0.2376
      2 O          10.6331   42.9633    9.5924 O.2     1  UNL1       -0.2738
      3 N           9.2057   41.2193    8.9306 N.am    1  UNL1       -0.2831
      4 H           9.0843   40.2424    8.9434 H       1  UNL1        0.1549
      5 C           6.1284   43.2713    8.4511 C.ar    1  UNL1        0.1398
      6 C           6.1584   43.4978    7.0660 C.ar    1  UNL1        0.0370
      7 C           7.1943   42.9729    6.2900 C.ar    1  UNL1        0.0044
      8 C           8.2045   42.2195    6.8929 C.ar    1  UNL1        0.0149
      9 C           8.1855   41.9855    8.2760 C.ar    1  UNL1        0.0534
     10 C           7.1444   42.5156    9.0457 C.ar    1  UNL1        0.0515
     11 O           5.1060   43.7816    9.2555 O.3     1  UNL1       -0.4754
     12 C           3.7277   43.5892    8.9617 C.3     1  UNL1        0.2054
     13 C           3.2942   42.1873    9.3610 C.3     1  UNL1        0.0473
     14 C           4.0203   40.4597   11.0111 C.3     1  UNL1        0.0001
     15 C           3.6120   41.9082   10.8212 C.3     1  UNL1        0.0038
     16 C          11.3219   40.7829   10.2333 C.3     1  UNL1        0.1501
     17 S          11.9052   39.5319    9.0481 S.3     1  UNL1       -0.0658
     18 C          13.2519   40.5626    8.4667 C.ar    1  UNL1        0.1938
     19 C          14.4254   41.9051    7.3126 C.ar    1  UNL1        0.2031
     20 C          12.1301   41.4803    6.4115 C.3     1  UNL1        0.1341
     21 N          14.4373   40.6692    9.0897 N.ar    1  UNL1       -0.1220
     22 N          15.1681   41.5087    8.3683 N.ar    1  UNL1       -0.1250
     23 N          13.2185   41.3182    7.3588 N.ar    1  UNL1       -0.2860
@<TRIPOS>BOND
     1    14    15    1
     2    15    13    1
     3    13    12    1
     4    12    11    1
     5     5    11    1
     6     6     7   ar
     7     8     9   ar
     8     9     3    1
     9    16     1    1
    10    16    17    1
    11    18    17    1
    12    19    23   ar
    13    20    23    1
    14    10     5   ar
    15     3     1   am
    16    21    22   ar
    17    23    18   ar
    18     5     6   ar
    19     7     8   ar
    20     9    10   ar
    21     1     2    2
    22    18    21   ar
    23    19    22   ar
    24     3     4    1
@<TRIPOS>MOLECULE
MolPort-002-191-102 2969362 CHEMBL1529339 CSSS00104853224 ChemDiv-8010-5151 MCULE-9329842742 PubChem-2274746 ZINC000002969362 ZINC02969362
 23 24 0 0 0
SMALL
GASTEIGER

@<TRIPOS>ATOM
      1 C          10.7655   40.9023   10.5576 C.2     1  UNL1        0.2376
      2 O          10.8906   41.0304   11.8043 O.2     1  UNL1       -0.2738
      3 N          11.8291   40.3777    9.7524 N.am    1  UNL1       -0.2831
      4 H          11.6536   40.2972    8.7871 H       1  UNL1        0.1549
      5 C          15.5302   39.9312    9.8654 C.ar    1  UNL1        0.1398
      6 C          15.6836   39.1773   11.0396 C.ar    1  UNL1        0.0370
      7 C          14.5652   38.8158   11.7940 C.ar    1  UNL1        0.0044
      8 C          13.2891   39.2050   11.3799 C.ar    1  UNL1        0.0149
      9 C          13.1225   39.9580   10.2080 C.ar    1  UNL1        0.0534
     10 C          14.2484   40.3162    9.4587 C.ar    1  UNL1        0.0515
     11 O          16.6282   40.3085    9.0876 O.3     1  UNL1       -0.4754
     12 C          17.1704   41.6233    9.1089 C.3     1  UNL1        0.2054
     13 C          16.6649   42.4213    7.9171 C.3     1  UNL1        0.0473
     14 C          17.2150   44.2079    6.2619 C.3     1  UNL1        0.0001
     15 C          17.6158   43.5559    7.5714 C.3     1  UNL1        0.0038
     16 C           9.4949   41.3231    9.9054 C.3     1  UNL1        0.1501
     17 S           8.4204   42.1734   11.1022 S.3     1  UNL1       -0.0658
     18 C           7.0103   42.1674    9.9951 C.ar    1  UNL1        0.1938
     19 C           5.6223   42.6956    8.4766 C.ar    1  UNL1        0.2031
     20 C           7.5618   44.2588    8.7121 C.3     1  UNL1        0.1341
     21 N           6.0472   41.2310   10.0129 N.ar    1  UNL1       -0.1220
     22 N           5.1822   41.5619    9.0633 N.ar    1  UNL1       -0.1250
     23 N           6.7697   43.0902    9.0518 N.ar    1  UNL1       -0.2860
@<TRIPOS>BOND
     1    14    15    1
     2    15    13    1
     3    13    12    1
     4    12    11    1
     5     5    11    1
     6     6     7   ar
     7     8     9   ar
     8     9     3    1
     9    16     1    1
    10    16    17    1
    11    18    17    1
    12    19    23   ar
    13    20    23    1
    14    10     5   ar
    15     3     1   am
    16    21    22   ar
    17    23    18   ar
    18     5     6   ar
    19     7     8   ar
    20     9    10   ar
    21     1     2    2
    22    18    21   ar
    23    19    22   ar
    24     3     4    1
