@<TRIPOS>MOLECULE
Molport-020-278-651 MCULE-8541989905 PubChem-110255523
 28 31 0 0 0
SMALL
GASTEIGER

@<TRIPOS>ATOM
      1 C           8.2094   40.2962    7.4525 C.3     1  UNL1        0.0522
      2 C           9.6815   40.4709    7.3530 C.ar    1  UNL1        0.0635
      3 C          10.2086   41.5730    6.6832 C.ar    1  UNL1        0.0492
      4 C          11.5986   41.7113    6.6049 C.ar    1  UNL1        0.1357
      5 C          11.8642   39.7013    7.8334 C.ar    1  UNL1        0.1414
      6 N          12.3927   40.7712    7.1827 N.ar    1  UNL1       -0.2159
      7 N          10.5135   39.5568    7.9143 N.ar    1  UNL1       -0.2348
      8 C          12.7746   38.6928    8.4508 C.3     1  UNL1        0.0785
      9 C          11.9722   37.6375    9.2148 C.3     1  UNL1        0.0110
     10 C          12.9093   36.6072    9.8415 C.3     1  UNL1        0.0220
     11 C          13.8967   37.3012   10.7745 C.3     1  UNL1        0.0934
     12 C          13.7849   39.3738    9.3740 C.3     1  UNL1        0.1009
     13 C          16.0240   38.3902    9.9626 C.2     1  UNL1        0.2252
     14 N          14.5919   38.3592   10.0458 N.am    1  UNL1       -0.2791
     15 O          16.5979   39.3128    9.3200 O.2     1  UNL1       -0.2749
     16 C          16.8484   37.3321   10.6321 C.3     1  UNL1        0.0767
     17 C          17.2002   36.2138    9.6652 C.3     1  UNL1        0.0091
     18 C          18.7053   36.0330    9.7348 C.3     1  UNL1        0.0005
     19 C          19.1681   36.7955   10.9569 C.3     1  UNL1        0.0005
     20 C          18.1565   37.9012   11.1426 C.3     1  UNL1        0.0091
     21 N          12.2139   42.8187    5.9321 N.pl3   1  UNL1       -0.2833
     22 H          11.6678   43.2716    5.2495 H       1  UNL1        0.1550
     23 C          13.5329   43.3420    6.1391 C.ar    1  UNL1        0.1332
     24 C          14.4121   42.6500    6.9767 C.ar    1  UNL1        0.0345
     25 C          15.6990   43.1490    7.1850 C.ar    1  UNL1        0.0045
     26 C          16.0965   44.3300    6.5571 C.ar    1  UNL1        0.0208
     27 C          15.1936   44.9960    5.7261 C.ar    1  UNL1        0.1003
     28 N          13.9439   44.4934    5.5366 N.ar    1  UNL1       -0.2290
@<TRIPOS>BOND
     1     1     2    1
     2     2     7   ar
     3     3     4   ar
     4     4    21    1
     5     5     6   ar
     6     8     5    1
     7     8     9    1
     8     9    10    1
     9    10    11    1
    10    11    14    1
    11    12    14    1
    12    12     8    1
    13    16    13    1
    14    16    17    1
    15    17    18    1
    16    18    19    1
    17    19    20    1
    18    20    16    1
    19    23    28   ar
    20    24    25   ar
    21    26    27   ar
    22    14    13   am
    23    21    23    1
    24     2     3   ar
    25     4     6   ar
    26     5     7   ar
    27    13    15    2
    28    23    24   ar
    29    25    26   ar
    30    27    28   ar
    31    21    22    1
@<TRIPOS>MOLECULE
Molport-020-278-651 MCULE-8541989905 PubChem-110255523
 28 31 0 0 0
SMALL
GASTEIGER

@<TRIPOS>ATOM
      1 C          13.3089   39.8155   10.8003 C.3     1  UNL1        0.0522
      2 C          12.5068   40.4029    9.6962 C.ar    1  UNL1        0.0635
      3 C          13.1461   40.9674    8.5946 C.ar    1  UNL1        0.0492
      4 C          12.3652   41.5135    7.5702 C.ar    1  UNL1        0.1357
      5 C          10.4005   40.9231    8.7580 C.ar    1  UNL1        0.1414
      6 N          11.0106   41.4776    7.6773 N.ar    1  UNL1       -0.2159
      7 N          11.1509   40.3902    9.7604 N.ar    1  UNL1       -0.2348
      8 C           8.9101   40.9080    8.8340 C.3     1  UNL1        0.0785
      9 C           8.2970   41.2649    7.4784 C.3     1  UNL1        0.0110
     10 C           6.7722   41.2447    7.5623 C.3     1  UNL1        0.0220
     11 C           6.2968   42.2214    8.6333 C.3     1  UNL1        0.0934
     12 C           8.4168   41.8669    9.9174 C.3     1  UNL1        0.1009
     13 C           6.2016   41.6341   11.0862 C.2     1  UNL1        0.2252
     14 N           6.9576   41.9135    9.8991 N.am    1  UNL1       -0.2791
     15 O           6.7993   41.3641   12.1647 O.2     1  UNL1       -0.2749
     16 C           4.7029   41.6575   11.0572 C.3     1  UNL1        0.0767
     17 C           4.1849   42.8956   10.3443 C.3     1  UNL1        0.0091
     18 C           3.2113   42.4146    9.2844 C.3     1  UNL1        0.0005
     19 C           2.9202   40.9643    9.6026 C.3     1  UNL1        0.0005
     20 C           4.1527   40.4579   10.3131 C.3     1  UNL1        0.0091
     21 N          12.9520   42.1117    6.4059 N.pl3   1  UNL1       -0.2833
     22 H          12.5648   41.8496    5.5395 H       1  UNL1        0.1550
     23 C          14.0376   43.0475    6.3586 C.ar    1  UNL1        0.1332
     24 C          15.2364   42.7267    7.0015 C.ar    1  UNL1        0.0345
     25 C          16.3007   43.6291    6.9613 C.ar    1  UNL1        0.0045
     26 C          16.1602   44.8396    6.2814 C.ar    1  UNL1        0.0208
     27 C          14.9493   45.1283    5.6493 C.ar    1  UNL1        0.1003
     28 N          13.9241   44.2357    5.7006 N.ar    1  UNL1       -0.2290
@<TRIPOS>BOND
     1     1     2    1
     2     2     7   ar
     3     3     4   ar
     4     4    21    1
     5     5     6   ar
     6     8     5    1
     7     8     9    1
     8     9    10    1
     9    10    11    1
    10    11    14    1
    11    12    14    1
    12    12     8    1
    13    16    13    1
    14    16    17    1
    15    17    18    1
    16    18    19    1
    17    19    20    1
    18    20    16    1
    19    23    28   ar
    20    24    25   ar
    21    26    27   ar
    22    14    13   am
    23    21    23    1
    24     2     3   ar
    25     4     6   ar
    26     5     7   ar
    27    13    15    2
    28    23    24   ar
    29    25    26   ar
    30    27    28   ar
    31    21    22    1
@<TRIPOS>MOLECULE
Molport-020-278-651 MCULE-8541989905 PubChem-110255523
 28 31 0 0 0
SMALL
GASTEIGER

@<TRIPOS>ATOM
      1 C           9.9819   41.8978   11.2340 C.3     1  UNL1        0.0522
      2 C          11.0764   41.4831   10.3187 C.ar    1  UNL1        0.0635
      3 C          11.3298   42.2137    9.1599 C.ar    1  UNL1        0.0492
      4 C          12.3664   41.7996    8.3165 C.ar    1  UNL1        0.1357
      5 C          12.8365   39.9985    9.7844 C.ar    1  UNL1        0.1414
      6 N          13.0949   40.7014    8.6501 N.ar    1  UNL1       -0.2159
      7 N          11.8297   40.3923   10.6110 N.ar    1  UNL1       -0.2348
      8 C          13.6608   38.7977   10.1094 C.3     1  UNL1        0.0785
      9 C          14.3796   38.9825   11.4474 C.3     1  UNL1        0.0110
     10 C          15.2187   37.7493   11.7754 C.3     1  UNL1        0.0220
     11 C          16.2290   37.4958   10.6610 C.3     1  UNL1        0.0934
     12 C          14.6659   38.5166    8.9925 C.3     1  UNL1        0.1009
     13 C          15.6566   36.2487    8.5425 C.2     1  UNL1        0.2252
     14 N          15.5290   37.4053    9.3821 N.am    1  UNL1       -0.2791
     15 O          15.0342   36.1948    7.4457 O.2     1  UNL1       -0.2749
     16 C          16.5234   35.0984    8.9582 C.3     1  UNL1        0.0767
     17 C          15.9073   33.7696    8.5529 C.3     1  UNL1        0.0091
     18 C          16.9730   33.0097    7.7849 C.3     1  UNL1        0.0005
     19 C          18.2753   33.7390    8.0323 C.3     1  UNL1        0.0005
     20 C          17.8842   35.1734    8.2961 C.3     1  UNL1        0.0091
     21 N          12.6859   42.5010    7.1066 N.pl3   1  UNL1       -0.2833
     22 H          11.9881   42.5120    6.4123 H       1  UNL1        0.1550
     23 C          13.9048   43.1879    6.7920 C.ar    1  UNL1        0.1332
     24 C          15.1116   42.6874    7.2886 C.ar    1  UNL1        0.0345
     25 C          16.3047   43.3468    6.9881 C.ar    1  UNL1        0.0045
     26 C          16.2834   44.4958    6.1966 C.ar    1  UNL1        0.0208
     27 C          15.0607   44.9685    5.7162 C.ar    1  UNL1        0.1003
     28 N          13.9091   44.3117    6.0208 N.ar    1  UNL1       -0.2290
@<TRIPOS>BOND
     1     1     2    1
     2     2     7   ar
     3     3     4   ar
     4     4    21    1
     5     5     6   ar
     6     8     5    1
     7     8     9    1
     8     9    10    1
     9    10    11    1
    10    11    14    1
    11    12    14    1
    12    12     8    1
    13    16    13    1
    14    16    17    1
    15    17    18    1
    16    18    19    1
    17    19    20    1
    18    20    16    1
    19    23    28   ar
    20    24    25   ar
    21    26    27   ar
    22    14    13   am
    23    21    23    1
    24     2     3   ar
    25     4     6   ar
    26     5     7   ar
    27    13    15    2
    28    23    24   ar
    29    25    26   ar
    30    27    28   ar
    31    21    22    1
@<TRIPOS>MOLECULE
Molport-020-278-651 MCULE-8541989905 PubChem-110255523
 28 31 0 0 0
SMALL
GASTEIGER

@<TRIPOS>ATOM
      1 C           6.8864   42.2195    5.7848 C.3     1  UNL1        0.0522
      2 C           7.7976   41.9359    6.9236 C.ar    1  UNL1        0.0635
      3 C           7.2891   41.8485    8.2177 C.ar    1  UNL1        0.0492
      4 C           8.1708   41.5809    9.2705 C.ar    1  UNL1        0.1357
      5 C           9.9749   41.5011    7.7347 C.ar    1  UNL1        0.1414
      6 N           9.4929   41.4134    9.0026 N.ar    1  UNL1       -0.2159
      7 N           9.1259   41.7621    6.7037 N.ar    1  UNL1       -0.2348
      8 C          11.4346   41.3123    7.4880 C.3     1  UNL1        0.0785
      9 C          11.9445   40.0579    8.2005 C.3     1  UNL1        0.0110
     10 C          13.4377   39.8690    7.9416 C.3     1  UNL1        0.0220
     11 C          14.2076   41.0979    8.4148 C.3     1  UNL1        0.0934
     12 C          12.2201   42.5441    7.9379 C.3     1  UNL1        0.1009
     13 C          14.4710   43.1803    7.0129 C.2     1  UNL1        0.2252
     14 N          13.6501   42.2924    7.7853 N.am    1  UNL1       -0.2791
     15 O          13.9608   44.2015    6.4743 O.2     1  UNL1       -0.2749
     16 C          15.9341   42.9046    6.8369 C.3     1  UNL1        0.0767
     17 C          16.7275   44.1952    6.7170 C.3     1  UNL1        0.0091
     18 C          17.8463   44.1171    7.7392 C.3     1  UNL1        0.0005
     19 C          17.8992   42.6773    8.2011 C.3     1  UNL1        0.0005
     20 C          16.4944   42.1516    8.0263 C.3     1  UNL1        0.0091
     21 N           7.7209   41.4766   10.6286 N.pl3   1  UNL1       -0.2833
     22 H           6.7460   41.4753   10.7656 H       1  UNL1        0.1550
     23 C           8.5276   41.3740   11.8097 C.ar    1  UNL1        0.1332
     24 C           9.8854   41.0698   11.6778 C.ar    1  UNL1        0.0345
     25 C          10.6811   40.9684   12.8203 C.ar    1  UNL1        0.0045
     26 C          10.1171   41.1716   14.0803 C.ar    1  UNL1        0.0208
     27 C           8.7576   41.4746   14.1764 C.ar    1  UNL1        0.1003
     28 N           7.9993   41.5684   13.0510 N.ar    1  UNL1       -0.2290
@<TRIPOS>BOND
     1     1     2    1
     2     2     7   ar
     3     3     4   ar
     4     4    21    1
     5     5     6   ar
     6     8     5    1
     7     8     9    1
     8     9    10    1
     9    10    11    1
    10    11    14    1
    11    12    14    1
    12    12     8    1
    13    16    13    1
    14    16    17    1
    15    17    18    1
    16    18    19    1
    17    19    20    1
    18    20    16    1
    19    23    28   ar
    20    24    25   ar
    21    26    27   ar
    22    14    13   am
    23    21    23    1
    24     2     3   ar
    25     4     6   ar
    26     5     7   ar
    27    13    15    2
    28    23    24   ar
    29    25    26   ar
    30    27    28   ar
    31    21    22    1
@<TRIPOS>MOLECULE
Molport-020-278-651 MCULE-8541989905 PubChem-110255523
 28 31 0 0 0
SMALL
GASTEIGER

@<TRIPOS>ATOM
      1 C          10.3737   39.9690    4.2129 C.3     1  UNL1        0.0522
      2 C          10.8137   40.6240    5.4718 C.ar    1  UNL1        0.0635
      3 C          12.1723   40.7678    5.7445 C.ar    1  UNL1        0.0492
      4 C          12.5573   41.3882    6.9379 C.ar    1  UNL1        0.1357
      5 C          10.2772   41.6854    7.5147 C.ar    1  UNL1        0.1414
      6 N          11.5993   41.8322    7.7941 N.ar    1  UNL1       -0.2159
      7 N           9.8922   41.0824    6.3570 N.ar    1  UNL1       -0.2348
      8 C           9.2602   42.1863    8.4853 C.3     1  UNL1        0.0785
      9 C           9.9361   42.6985    9.7589 C.3     1  UNL1        0.0110
     10 C           8.8904   43.2122   10.7463 C.3     1  UNL1        0.0220
     11 C           7.9005   42.1009   11.0811 C.3     1  UNL1        0.0934
     12 C           8.2471   41.0906    8.8166 C.3     1  UNL1        0.1009
     13 C           5.9110   41.5474    9.6298 C.2     1  UNL1        0.2252
     14 N           7.3294   41.5708    9.8456 N.am    1  UNL1       -0.2791
     15 O           5.4457   41.0899    8.5493 O.2     1  UNL1       -0.2749
     16 C           4.9729   42.0652   10.6783 C.3     1  UNL1        0.0767
     17 C           3.7104   42.6363   10.0545 C.3     1  UNL1        0.0091
     18 C           2.5385   41.9658   10.7474 C.3     1  UNL1        0.0005
     19 C           3.1058   41.2775   11.9696 C.3     1  UNL1        0.0005
     20 C           4.5389   40.9579   11.6170 C.3     1  UNL1        0.0091
     21 N          13.9365   41.5715    7.2869 N.pl3   1  UNL1       -0.2833
     22 H          14.3525   40.8500    7.8119 H       1  UNL1        0.1550
     23 C          14.7791   42.6846    6.9593 C.ar    1  UNL1        0.1332
     24 C          16.0548   42.7578    7.5256 C.ar    1  UNL1        0.0345
     25 C          16.8846   43.8360    7.2133 C.ar    1  UNL1        0.0045
     26 C          16.4361   44.8282    6.3408 C.ar    1  UNL1        0.0208
     27 C          15.1565   44.7241    5.7921 C.ar    1  UNL1        0.1003
     28 N          14.3631   43.6657    6.1095 N.ar    1  UNL1       -0.2290
@<TRIPOS>BOND
     1     1     2    1
     2     2     7   ar
     3     3     4   ar
     4     4    21    1
     5     5     6   ar
     6     8     5    1
     7     8     9    1
     8     9    10    1
     9    10    11    1
    10    11    14    1
    11    12    14    1
    12    12     8    1
    13    16    13    1
    14    16    17    1
    15    17    18    1
    16    18    19    1
    17    19    20    1
    18    20    16    1
    19    23    28   ar
    20    24    25   ar
    21    26    27   ar
    22    14    13   am
    23    21    23    1
    24     2     3   ar
    25     4     6   ar
    26     5     7   ar
    27    13    15    2
    28    23    24   ar
    29    25    26   ar
    30    27    28   ar
    31    21    22    1
@<TRIPOS>MOLECULE
Molport-020-278-651 MCULE-8541989905 PubChem-110255523
 28 31 0 0 0
SMALL
GASTEIGER

@<TRIPOS>ATOM
      1 C           6.7052   43.1841    5.5237 C.3     1  UNL1        0.0522
      2 C           7.3651   42.4735    6.6493 C.ar    1  UNL1        0.0635
      3 C           6.6359   42.1475    7.7907 C.ar    1  UNL1        0.0492
      4 C           7.2836   41.4788    8.8350 C.ar    1  UNL1        0.1357
      5 C           9.2993   41.4902    7.5873 C.ar    1  UNL1        0.1414
      6 N           8.6004   41.1662    8.7072 N.ar    1  UNL1       -0.2159
      7 N           8.6789   42.1417    6.5662 N.ar    1  UNL1       -0.2348
      8 C          10.7441   41.1290    7.4917 C.3     1  UNL1        0.0785
      9 C          11.0215   39.8148    8.2245 C.3     1  UNL1        0.0110
     10 C          12.5007   39.4495    8.1203 C.3     1  UNL1        0.0220
     11 C          13.3560   40.5713    8.7008 C.3     1  UNL1        0.0934
     12 C          11.6176   42.2520    8.0508 C.3     1  UNL1        0.1009
     13 C          14.0147   42.6213    7.3838 C.2     1  UNL1        0.2252
     14 N          13.0156   41.8310    8.0441 N.am    1  UNL1       -0.2791
     15 O          13.6906   43.7023    6.8184 O.2     1  UNL1       -0.2749
     16 C          15.4449   42.1727    7.3569 C.3     1  UNL1        0.0767
     17 C          16.3862   43.3453    7.1370 C.3     1  UNL1        0.0091
     18 C          17.4227   43.2874    8.2439 C.3     1  UNL1        0.0005
     19 C          17.2820   41.9245    8.8858 C.3     1  UNL1        0.0005
     20 C          15.8402   41.5305    8.6710 C.3     1  UNL1        0.0091
     21 N           6.5986   41.1107   10.0404 N.pl3   1  UNL1       -0.2833
     22 H           7.1405   40.6639   10.7303 H       1  UNL1        0.1550
     23 C           5.2153   41.3186   10.3563 C.ar    1  UNL1        0.1332
     24 C           4.2450   40.9601    9.4164 C.ar    1  UNL1        0.0345
     25 C           2.8951   41.1566    9.7131 C.ar    1  UNL1        0.0045
     26 C           2.5264   41.7066   10.9414 C.ar    1  UNL1        0.0208
     27 C           3.5211   42.0529   11.8578 C.ar    1  UNL1        0.1003
     28 N           4.8309   41.8538   11.5494 N.ar    1  UNL1       -0.2290
@<TRIPOS>BOND
     1     1     2    1
     2     2     7   ar
     3     3     4   ar
     4     4    21    1
     5     5     6   ar
     6     8     5    1
     7     8     9    1
     8     9    10    1
     9    10    11    1
    10    11    14    1
    11    12    14    1
    12    12     8    1
    13    16    13    1
    14    16    17    1
    15    17    18    1
    16    18    19    1
    17    19    20    1
    18    20    16    1
    19    23    28   ar
    20    24    25   ar
    21    26    27   ar
    22    14    13   am
    23    21    23    1
    24     2     3   ar
    25     4     6   ar
    26     5     7   ar
    27    13    15    2
    28    23    24   ar
    29    25    26   ar
    30    27    28   ar
    31    21    22    1
@<TRIPOS>MOLECULE
Molport-020-278-651 MCULE-8541989905 PubChem-110255523
 28 31 0 0 0
SMALL
GASTEIGER

@<TRIPOS>ATOM
      1 C          17.4822   37.3350   11.3982 C.3     1  UNL1        0.0522
      2 C          16.7308   38.4228   10.7202 C.ar    1  UNL1        0.0635
      3 C          17.4155   39.5026   10.1670 C.ar    1  UNL1        0.0492
      4 C          16.6817   40.5124    9.5351 C.ar    1  UNL1        0.1357
      5 C          14.6726   39.3521   10.0217 C.ar    1  UNL1        0.1414
      6 N          15.3273   40.4119    9.4779 N.ar    1  UNL1       -0.2159
      7 N          15.3769   38.3650   10.6396 N.ar    1  UNL1       -0.2348
      8 C          13.1842   39.2847    9.9371 C.3     1  UNL1        0.0785
      9 C          12.7249   37.8568    9.6350 C.3     1  UNL1        0.0110
     10 C          11.2011   37.7943    9.5527 C.3     1  UNL1        0.0220
     11 C          10.6982   38.7521    8.4772 C.3     1  UNL1        0.0934
     12 C          12.6611   40.2542    8.8773 C.3     1  UNL1        0.1009
     13 C          10.3368   41.2159    8.8891 C.2     1  UNL1        0.2252
     14 N          11.2166   40.0923    8.7396 N.am    1  UNL1       -0.2791
     15 O          10.8123   42.3617    9.1224 O.2     1  UNL1       -0.2749
     16 C           8.8524   41.0411    8.7727 C.3     1  UNL1        0.0767
     17 C           8.1229   41.7650    9.8922 C.3     1  UNL1        0.0091
     18 C           7.0749   42.6436    9.2345 C.3     1  UNL1        0.0005
     19 C           6.9771   42.1834    7.7966 C.3     1  UNL1        0.0005
     20 C           8.3363   41.6132    7.4681 C.3     1  UNL1        0.0091
     21 N          17.3168   41.6542    8.9430 N.pl3   1  UNL1       -0.2833
     22 H          18.2230   41.8645    9.2653 H       1  UNL1        0.1550
     23 C          16.7838   42.5247    7.9357 C.ar    1  UNL1        0.1332
     24 C          15.4553   42.3612    7.5336 C.ar    1  UNL1        0.0345
     25 C          14.9249   43.2033    6.5547 C.ar    1  UNL1        0.0045
     26 C          15.7220   44.1986    5.9880 C.ar    1  UNL1        0.0208
     27 C          17.0448   44.3352    6.4132 C.ar    1  UNL1        0.1003
     28 N          17.5428   43.5041    7.3680 N.ar    1  UNL1       -0.2290
@<TRIPOS>BOND
     1     1     2    1
     2     2     7   ar
     3     3     4   ar
     4     4    21    1
     5     5     6   ar
     6     8     5    1
     7     8     9    1
     8     9    10    1
     9    10    11    1
    10    11    14    1
    11    12    14    1
    12    12     8    1
    13    16    13    1
    14    16    17    1
    15    17    18    1
    16    18    19    1
    17    19    20    1
    18    20    16    1
    19    23    28   ar
    20    24    25   ar
    21    26    27   ar
    22    14    13   am
    23    21    23    1
    24     2     3   ar
    25     4     6   ar
    26     5     7   ar
    27    13    15    2
    28    23    24   ar
    29    25    26   ar
    30    27    28   ar
    31    21    22    1
@<TRIPOS>MOLECULE
Molport-020-278-651 MCULE-8541989905 PubChem-110255523
 28 31 0 0 0
SMALL
GASTEIGER

@<TRIPOS>ATOM
      1 C          16.1509   44.1529    6.0481 C.3     1  UNL1        0.0522
      2 C          15.9284   43.0938    7.0661 C.ar    1  UNL1        0.0635
      3 C          17.0100   42.5575    7.7614 C.ar    1  UNL1        0.0492
      4 C          16.7704   41.5611    8.7138 C.ar    1  UNL1        0.1357
      5 C          14.4490   41.6791    8.2483 C.ar    1  UNL1        0.1414
      6 N          15.4947   41.1464    8.9340 N.ar    1  UNL1       -0.2159
      7 N          14.6713   42.6480    7.3189 N.ar    1  UNL1       -0.2348
      8 C          13.0653   41.1914    8.5215 C.3     1  UNL1        0.0785
      9 C          13.0539   40.2466    9.7250 C.3     1  UNL1        0.0110
     10 C          11.6350   39.7537   10.0010 C.3     1  UNL1        0.0220
     11 C          11.0799   39.0484    8.7676 C.3     1  UNL1        0.0934
     12 C          12.4853   40.4992    7.2881 C.3     1  UNL1        0.1009
     13 C          10.0201   40.2822    6.8374 C.2     1  UNL1        0.2252
     14 N          11.1770   39.9391    7.6139 N.am    1  UNL1       -0.2791
     15 O          10.1325   41.0601    5.8497 O.2     1  UNL1       -0.2749
     16 C           8.6738   39.7254    7.1907 C.3     1  UNL1        0.0767
     17 C           7.8897   40.6916    8.0632 C.3     1  UNL1        0.0091
     18 C           6.5385   40.8821    7.3993 C.3     1  UNL1        0.0005
     19 C           6.4222   39.7942    6.3542 C.3     1  UNL1        0.0005
     20 C           7.8421   39.4789    5.9485 C.3     1  UNL1        0.0091
     21 N          17.8331   40.9619    9.4684 N.pl3   1  UNL1       -0.2833
     22 H          18.5675   41.5600    9.7370 H       1  UNL1        0.1550
     23 C          17.9490   39.5921    9.8767 C.ar    1  UNL1        0.1332
     24 C          17.0531   39.0902   10.8248 C.ar    1  UNL1        0.0345
     25 C          17.1552   37.7580   11.2292 C.ar    1  UNL1        0.0045
     26 C          18.1467   36.9407   10.6852 C.ar    1  UNL1        0.0208
     27 C          19.0248   37.4737    9.7397 C.ar    1  UNL1        0.1003
     28 N          18.9089   38.7745    9.3593 N.ar    1  UNL1       -0.2290
@<TRIPOS>BOND
     1     1     2    1
     2     2     7   ar
     3     3     4   ar
     4     4    21    1
     5     5     6   ar
     6     8     5    1
     7     8     9    1
     8     9    10    1
     9    10    11    1
    10    11    14    1
    11    12    14    1
    12    12     8    1
    13    16    13    1
    14    16    17    1
    15    17    18    1
    16    18    19    1
    17    19    20    1
    18    20    16    1
    19    23    28   ar
    20    24    25   ar
    21    26    27   ar
    22    14    13   am
    23    21    23    1
    24     2     3   ar
    25     4     6   ar
    26     5     7   ar
    27    13    15    2
    28    23    24   ar
    29    25    26   ar
    30    27    28   ar
    31    21    22    1
@<TRIPOS>MOLECULE
Molport-020-278-651 MCULE-8541989905 PubChem-110255523
 28 31 0 0 0
SMALL
GASTEIGER

@<TRIPOS>ATOM
      1 C           9.3307   38.4508    3.0202 C.3     1  UNL1        0.0522
      2 C           9.4389   39.1422    4.3308 C.ar    1  UNL1        0.0635
      3 C           8.2966   39.3682    5.0957 C.ar    1  UNL1        0.0492
      4 C           8.4287   40.0221    6.3255 C.ar    1  UNL1        0.1357
      5 C          10.7683   40.1883    5.9818 C.ar    1  UNL1        0.1414
      6 N           9.6624   40.4160    6.7385 N.ar    1  UNL1       -0.2159
      7 N          10.6506   39.5541    4.7835 N.ar    1  UNL1       -0.2348
      8 C          12.1025   40.6406    6.4744 C.3     1  UNL1        0.0785
      9 C          12.4679   39.9251    7.7766 C.3     1  UNL1        0.0110
     10 C          13.8352   40.3901    8.2735 C.3     1  UNL1        0.0220
     11 C          13.8266   41.9011    8.4827 C.3     1  UNL1        0.0934
     12 C          12.1182   42.1565    6.6702 C.3     1  UNL1        0.1009
     13 C          14.2108   43.5512    6.6117 C.2     1  UNL1        0.2252
     14 N          13.3953   42.5593    7.2520 N.am    1  UNL1       -0.2791
     15 O          13.8159   44.0986    5.5450 O.2     1  UNL1       -0.2749
     16 C          15.5334   43.9436    7.1983 C.3     1  UNL1        0.0767
     17 C          16.3007   42.7273    7.6898 C.3     1  UNL1        0.0091
     18 C          17.6788   42.7952    7.0579 C.3     1  UNL1        0.0005
     19 C          17.8155   44.1897    6.4870 C.3     1  UNL1        0.0005
     20 C          16.4065   44.6282    6.1666 C.3     1  UNL1        0.0091
     21 N           7.2985   40.2898    7.1673 N.pl3   1  UNL1       -0.2833
     22 H           6.8918   39.5109    7.6113 H       1  UNL1        0.1550
     23 C           6.6928   41.5614    7.4368 C.ar    1  UNL1        0.1332
     24 C           6.9401   42.6270    6.5669 C.ar    1  UNL1        0.0345
     25 C           6.3551   43.8693    6.8182 C.ar    1  UNL1        0.0045
     26 C           5.5305   44.0368    7.9313 C.ar    1  UNL1        0.0208
     27 C           5.3039   42.9513    8.7796 C.ar    1  UNL1        0.1003
     28 N           5.8837   41.7491    8.5175 N.ar    1  UNL1       -0.2290
@<TRIPOS>BOND
     1     1     2    1
     2     2     7   ar
     3     3     4   ar
     4     4    21    1
     5     5     6   ar
     6     8     5    1
     7     8     9    1
     8     9    10    1
     9    10    11    1
    10    11    14    1
    11    12    14    1
    12    12     8    1
    13    16    13    1
    14    16    17    1
    15    17    18    1
    16    18    19    1
    17    19    20    1
    18    20    16    1
    19    23    28   ar
    20    24    25   ar
    21    26    27   ar
    22    14    13   am
    23    21    23    1
    24     2     3   ar
    25     4     6   ar
    26     5     7   ar
    27    13    15    2
    28    23    24   ar
    29    25    26   ar
    30    27    28   ar
    31    21    22    1
@<TRIPOS>MOLECULE
Molport-020-278-651 MCULE-8541989905 PubChem-110255523
 28 31 0 0 0
SMALL
GASTEIGER

@<TRIPOS>ATOM
      1 C          14.1137   38.1766   11.6858 C.3     1  UNL1        0.0522
      2 C          13.8174   39.1900   10.6404 C.ar    1  UNL1        0.0635
      3 C          14.8600   39.8041    9.9499 C.ar    1  UNL1        0.0492
      4 C          14.5510   40.7549    8.9712 C.ar    1  UNL1        0.1357
      5 C          12.2410   40.4438    9.4033 C.ar    1  UNL1        0.1414
      6 N          13.2480   41.0513    8.7218 N.ar    1  UNL1       -0.2159
      7 N          12.5308   39.5183   10.3579 N.ar    1  UNL1       -0.2348
      8 C          10.8250   40.8023    9.0975 C.3     1  UNL1        0.0785
      9 C          10.7368   41.5786    7.7819 C.3     1  UNL1        0.0110
     10 C           9.2853   41.9396    7.4734 C.3     1  UNL1        0.0220
     11 C           8.6999   42.7637    8.6158 C.3     1  UNL1        0.0934
     12 C          10.2156   41.6117   10.2421 C.3     1  UNL1        0.1009
     13 C           7.7470   41.7283   10.7113 C.2     1  UNL1        0.2252
     14 N           8.8693   42.0398    9.8732 N.am    1  UNL1       -0.2791
     15 O           7.9223   41.0953   11.7892 O.2     1  UNL1       -0.2749
     16 C           6.3628   42.1470   10.3164 C.3     1  UNL1        0.0767
     17 C           5.8681   41.3541    9.1180 C.3     1  UNL1        0.0091
     18 C           4.5168   40.7798    9.5015 C.3     1  UNL1        0.0005
     19 C           4.0915   41.5010   10.7617 C.3     1  UNL1        0.0005
     20 C           5.3777   41.9055   11.4418 C.3     1  UNL1        0.0091
     21 N          15.5704   41.4286    8.2197 N.pl3   1  UNL1       -0.2833
     22 H          16.4815   41.0637    8.2970 H       1  UNL1        0.1550
     23 C          15.4152   42.5724    7.3687 C.ar    1  UNL1        0.1332
     24 C          16.4246   43.5387    7.3427 C.ar    1  UNL1        0.0345
     25 C          16.2854   44.6560    6.5174 C.ar    1  UNL1        0.0045
     26 C          15.1441   44.7984    5.7272 C.ar    1  UNL1        0.0208
     27 C          14.1552   43.8141    5.7767 C.ar    1  UNL1        0.1003
     28 N          14.3097   42.7331    6.5879 N.ar    1  UNL1       -0.2290
@<TRIPOS>BOND
     1     1     2    1
     2     2     7   ar
     3     3     4   ar
     4     4    21    1
     5     5     6   ar
     6     8     5    1
     7     8     9    1
     8     9    10    1
     9    10    11    1
    10    11    14    1
    11    12    14    1
    12    12     8    1
    13    16    13    1
    14    16    17    1
    15    17    18    1
    16    18    19    1
    17    19    20    1
    18    20    16    1
    19    23    28   ar
    20    24    25   ar
    21    26    27   ar
    22    14    13   am
    23    21    23    1
    24     2     3   ar
    25     4     6   ar
    26     5     7   ar
    27    13    15    2
    28    23    24   ar
    29    25    26   ar
    30    27    28   ar
    31    21    22    1
