@<TRIPOS>MOLECULE
MolPort-005-296-499 11695057 CSSS00106588480 MCULE-9651725630 PKTADVUQVLQCER-UHFFFAOYSA-N PubChem-42110475 ZINC000011695057 ZINC11695057
 29 32 0 0 0
SMALL
GASTEIGER

@<TRIPOS>ATOM
      1 C          12.1667   41.7009    7.1464 C.ar    1  UNL1        0.1659
      2 C          14.3552   42.1335    7.4547 C.ar    1  UNL1        0.0923
      3 C          14.2117   41.0310    8.3182 C.ar    1  UNL1        0.0886
      4 N          13.2083   42.4913    6.8113 N.ar    1  UNL1       -0.2238
      5 S          12.6064   40.5165    8.2456 S.2     1  UNL1       -0.0481
      6 C          15.5957   42.9154    7.2580 C.ar    1  UNL1        0.0183
      7 C          16.0081   43.3237    5.9801 C.ar    1  UNL1        0.0015
      8 C          17.2033   44.0281    5.8108 C.ar    1  UNL1        0.0000
      9 C          18.0039   44.3209    6.9176 C.ar    1  UNL1        0.0000
     10 C          17.6113   43.9050    8.1922 C.ar    1  UNL1        0.0000
     11 C          16.4154   43.2010    8.3602 C.ar    1  UNL1        0.0015
     12 C           9.6504   41.9324    7.4090 C.2     1  UNL1        0.2683
     13 N          10.8440   41.8470    6.6217 N.am    1  UNL1       -0.2594
     14 O           9.7134   41.8797    8.6672 O.2     1  UNL1       -0.2681
     15 H          10.7464   41.8923    5.6431 H       1  UNL1        0.1571
     16 C           8.0791   39.7601    5.8285 C.3     1  UNL1        0.1539
     17 C           6.4457   42.9128    6.0365 C.ar    1  UNL1        0.1218
     18 C           7.5849   43.2460    6.7576 C.ar    1  UNL1        0.0458
     19 C           8.3335   42.0827    6.7586 C.ar    1  UNL1        0.1330
     20 N           7.6659   41.1314    6.0774 N.ar    1  UNL1       -0.2443
     21 N           6.5246   41.6268    5.6387 N.ar    1  UNL1       -0.1675
     22 C          15.2796   40.3003    9.0324 C.2     1  UNL1        0.2030
     23 O          16.4731   40.6855    8.9005 O.2     1  UNL1       -0.2860
     24 C          14.9918   39.1134    9.8682 C.ar    1  UNL1        0.0395
     25 C          14.6201   39.2772   11.2117 C.ar    1  UNL1        0.0032
     26 C          14.3276   38.1662   12.0081 C.ar    1  UNL1        0.0001
     27 C          14.3991   36.8803   11.4668 C.ar    1  UNL1        0.0000
     28 C          14.7604   36.7055   10.1288 C.ar    1  UNL1        0.0001
     29 C          15.0526   37.8169    9.3331 C.ar    1  UNL1        0.0032
@<TRIPOS>BOND
     1    16    20    1
     2    17    18   ar
     3    19    12    1
     4    19    20   ar
     5    12    13   am
     6     1     5   ar
     7     2     4   ar
     8     2     6    1
     9     3     5   ar
    10     3    22    1
    11    22    24    1
    12    25    26   ar
    13    27    28   ar
    14    29    24   ar
    15     7     8   ar
    16     9    10   ar
    17    11     6   ar
    18    20    21   ar
    19    13     1    1
    20    17    21   ar
    21    18    19   ar
    22    12    14    2
    23     1     4   ar
    24     2     3   ar
    25    22    23    2
    26    24    25   ar
    27    26    27   ar
    28    28    29   ar
    29     6     7   ar
    30     8     9   ar
    31    10    11   ar
    32    13    15    1
@<TRIPOS>MOLECULE
MolPort-005-296-499 11695057 CSSS00106588480 MCULE-9651725630 PKTADVUQVLQCER-UHFFFAOYSA-N PubChem-42110475 ZINC000011695057 ZINC11695057
 29 32 0 0 0
SMALL
GASTEIGER

@<TRIPOS>ATOM
      1 C          14.7784   39.1780    9.4314 C.ar    1  UNL1        0.1659
      2 C          14.8485   41.1406    8.3293 C.ar    1  UNL1        0.0923
      3 C          16.0059   41.2755    9.1192 C.ar    1  UNL1        0.0886
      4 N          14.1793   39.9681    8.5156 N.ar    1  UNL1       -0.2238
      5 S          16.1666   39.8791   10.0526 S.2     1  UNL1       -0.0481
      6 C          14.3173   42.1632    7.4013 C.ar    1  UNL1        0.0183
      7 C          14.7775   42.2607    6.0791 C.ar    1  UNL1        0.0015
      8 C          14.2914   43.2585    5.2295 C.ar    1  UNL1        0.0000
      9 C          13.3482   44.1762    5.6985 C.ar    1  UNL1        0.0000
     10 C          12.8953   44.0985    7.0178 C.ar    1  UNL1        0.0000
     11 C          13.3819   43.0999    7.8662 C.ar    1  UNL1        0.0015
     12 C          12.9162   37.5025    9.8548 C.2     1  UNL1        0.2683
     13 N          14.2948   37.8900    9.8229 N.am    1  UNL1       -0.2594
     14 O          12.0175   38.3220    9.5219 O.2     1  UNL1       -0.2681
     15 H          14.9615   37.2173   10.0914 H       1  UNL1        0.1571
     16 C          14.3256   34.8329    9.0985 C.3     1  UNL1        0.1539
     17 C          11.4885   34.4636   11.2116 C.ar    1  UNL1        0.1218
     18 C          11.4539   35.8469   11.0945 C.ar    1  UNL1        0.0458
     19 C          12.5303   36.1415   10.2770 C.ar    1  UNL1        0.1330
     20 N          13.1516   34.9946    9.9405 N.ar    1  UNL1       -0.2443
     21 N          12.5269   33.9773   10.5021 N.ar    1  UNL1       -0.1675
     22 C          17.0301   42.3385    9.0437 C.2     1  UNL1        0.2030
     23 O          17.6761   42.6356   10.0851 O.2     1  UNL1       -0.2860
     24 C          17.2941   43.0838    7.7927 C.ar    1  UNL1        0.0395
     25 C          18.0809   42.5037    6.7856 C.ar    1  UNL1        0.0032
     26 C          18.3235   43.1884    5.5912 C.ar    1  UNL1        0.0001
     27 C          17.7769   44.4582    5.3904 C.ar    1  UNL1        0.0000
     28 C          16.9859   45.0424    6.3826 C.ar    1  UNL1        0.0001
     29 C          16.7437   44.3570    7.5765 C.ar    1  UNL1        0.0032
@<TRIPOS>BOND
     1    16    20    1
     2    17    18   ar
     3    19    12    1
     4    19    20   ar
     5    12    13   am
     6     1     5   ar
     7     2     4   ar
     8     2     6    1
     9     3     5   ar
    10     3    22    1
    11    22    24    1
    12    25    26   ar
    13    27    28   ar
    14    29    24   ar
    15     7     8   ar
    16     9    10   ar
    17    11     6   ar
    18    20    21   ar
    19    13     1    1
    20    17    21   ar
    21    18    19   ar
    22    12    14    2
    23     1     4   ar
    24     2     3   ar
    25    22    23    2
    26    24    25   ar
    27    26    27   ar
    28    28    29   ar
    29     6     7   ar
    30     8     9   ar
    31    10    11   ar
    32    13    15    1
@<TRIPOS>MOLECULE
MolPort-005-296-499 11695057 CSSS00106588480 MCULE-9651725630 PKTADVUQVLQCER-UHFFFAOYSA-N PubChem-42110475 ZINC000011695057 ZINC11695057
 29 32 0 0 0
SMALL
GASTEIGER

@<TRIPOS>ATOM
      1 C           6.9866   41.2221    8.3362 C.ar    1  UNL1        0.1659
      2 C           9.1944   40.8879    8.0436 C.ar    1  UNL1        0.0923
      3 C           8.7998   41.0284    6.6997 C.ar    1  UNL1        0.0886
      4 N           8.1734   40.9991    8.9395 N.ar    1  UNL1       -0.2238
      5 S           7.1350   41.3014    6.6701 S.2     1  UNL1       -0.0481
      6 C          10.5664   40.5893    8.5099 C.ar    1  UNL1        0.0183
      7 C          11.6051   41.5230    8.3722 C.ar    1  UNL1        0.0015
      8 C          12.9031   41.2072    8.7834 C.ar    1  UNL1        0.0000
      9 C          13.1770   39.9494    9.3260 C.ar    1  UNL1        0.0000
     10 C          12.1540   39.0065    9.4527 C.ar    1  UNL1        0.0000
     11 C          10.8562   39.3237    9.0414 C.ar    1  UNL1        0.0015
     12 C           5.6159   41.5923   10.4430 C.2     1  UNL1        0.2683
     13 N           5.7472   41.3811    9.0324 N.am    1  UNL1       -0.2594
     14 O           6.6407   41.6507   11.1754 O.2     1  UNL1       -0.2681
     15 H           4.9197   41.3424    8.5004 H       1  UNL1        0.1571
     16 C           4.1274   39.5262   12.2321 C.3     1  UNL1        0.1539
     17 C           2.3419   42.5487   11.6599 C.ar    1  UNL1        0.1218
     18 C           3.4757   42.8601   10.9209 C.ar    1  UNL1        0.0458
     19 C           4.2817   41.7440   11.0566 C.ar    1  UNL1        0.1330
     20 N           3.6504   40.8390   11.8294 N.ar    1  UNL1       -0.2443
     21 N           2.4780   41.3194   12.1972 N.ar    1  UNL1       -0.1675
     22 C           9.6710   41.1197    5.5092 C.2     1  UNL1        0.2030
     23 O          10.1590   42.2399    5.1972 O.2     1  UNL1       -0.2860
     24 C           9.9583   39.9441    4.6574 C.ar    1  UNL1        0.0395
     25 C          11.2601   39.4227    4.6005 C.ar    1  UNL1        0.0032
     26 C          11.5424   38.3017    3.8146 C.ar    1  UNL1        0.0001
     27 C          10.5238   37.6879    3.0816 C.ar    1  UNL1        0.0000
     28 C           9.2227   38.1934    3.1364 C.ar    1  UNL1        0.0001
     29 C           8.9413   39.3143    3.9227 C.ar    1  UNL1        0.0032
@<TRIPOS>BOND
     1    16    20    1
     2    17    18   ar
     3    19    12    1
     4    19    20   ar
     5    12    13   am
     6     1     5   ar
     7     2     4   ar
     8     2     6    1
     9     3     5   ar
    10     3    22    1
    11    22    24    1
    12    25    26   ar
    13    27    28   ar
    14    29    24   ar
    15     7     8   ar
    16     9    10   ar
    17    11     6   ar
    18    20    21   ar
    19    13     1    1
    20    17    21   ar
    21    18    19   ar
    22    12    14    2
    23     1     4   ar
    24     2     3   ar
    25    22    23    2
    26    24    25   ar
    27    26    27   ar
    28    28    29   ar
    29     6     7   ar
    30     8     9   ar
    31    10    11   ar
    32    13    15    1
@<TRIPOS>MOLECULE
MolPort-005-296-499 11695057 CSSS00106588480 MCULE-9651725630 PKTADVUQVLQCER-UHFFFAOYSA-N PubChem-42110475 ZINC000011695057 ZINC11695057
 29 32 0 0 0
SMALL
GASTEIGER

@<TRIPOS>ATOM
      1 C          10.6621   41.3475   10.6444 C.ar    1  UNL1        0.1659
      2 C           8.4925   41.8099   10.2566 C.ar    1  UNL1        0.0923
      3 C           9.0530   43.0705    9.9767 C.ar    1  UNL1        0.0886
      4 N           9.4019   40.8643   10.6255 N.ar    1  UNL1       -0.2238
      5 S          10.7219   42.9611   10.2004 S.2     1  UNL1       -0.0481
      6 C           7.0492   41.4855   10.2277 C.ar    1  UNL1        0.0183
      7 C           6.4071   41.1127    9.0368 C.ar    1  UNL1        0.0015
      8 C           5.0348   40.8479    9.0227 C.ar    1  UNL1        0.0000
      9 C           4.2890   40.9649   10.1982 C.ar    1  UNL1        0.0000
     10 C           4.9150   41.3512   11.3859 C.ar    1  UNL1        0.0000
     11 C           6.2876   41.6153   11.3988 C.ar    1  UNL1        0.0015
     12 C          12.4824   39.6534   10.1237 C.2     1  UNL1        0.2683
     13 N          11.8149   40.5757   10.9929 N.am    1  UNL1       -0.2594
     14 O          12.0625   39.4689    8.9491 O.2     1  UNL1       -0.2681
     15 H          12.1780   40.6872   11.9012 H       1  UNL1        0.1571
     16 C          15.4601   40.2431    9.4375 C.3     1  UNL1        0.1539
     17 C          14.9594   37.4529   11.5856 C.ar    1  UNL1        0.1218
     18 C          13.6258   37.8063   11.4265 C.ar    1  UNL1        0.0458
     19 C          13.6680   38.9080   10.5909 C.ar    1  UNL1        0.1330
     20 N          14.9521   39.1764   10.2843 N.ar    1  UNL1       -0.2443
     21 N          15.7370   38.3007   10.8824 N.ar    1  UNL1       -0.1675
     22 C           8.3742   44.2520    9.4042 C.2     1  UNL1        0.2030
     23 O           8.6854   45.3976    9.8295 O.2     1  UNL1       -0.2860
     24 C           7.3198   44.1260    8.3734 C.ar    1  UNL1        0.0395
     25 C           6.0368   44.6393    8.6186 C.ar    1  UNL1        0.0032
     26 C           5.0361   44.5437    7.6472 C.ar    1  UNL1        0.0001
     27 C           5.3106   43.9381    6.4187 C.ar    1  UNL1        0.0000
     28 C           6.5861   43.4303    6.1604 C.ar    1  UNL1        0.0001
     29 C           7.5862   43.5265    7.1322 C.ar    1  UNL1        0.0032
@<TRIPOS>BOND
     1    16    20    1
     2    17    18   ar
     3    19    12    1
     4    19    20   ar
     5    12    13   am
     6     1     5   ar
     7     2     4   ar
     8     2     6    1
     9     3     5   ar
    10     3    22    1
    11    22    24    1
    12    25    26   ar
    13    27    28   ar
    14    29    24   ar
    15     7     8   ar
    16     9    10   ar
    17    11     6   ar
    18    20    21   ar
    19    13     1    1
    20    17    21   ar
    21    18    19   ar
    22    12    14    2
    23     1     4   ar
    24     2     3   ar
    25    22    23    2
    26    24    25   ar
    27    26    27   ar
    28    28    29   ar
    29     6     7   ar
    30     8     9   ar
    31    10    11   ar
    32    13    15    1
@<TRIPOS>MOLECULE
MolPort-005-296-499 11695057 CSSS00106588480 MCULE-9651725630 PKTADVUQVLQCER-UHFFFAOYSA-N PubChem-42110475 ZINC000011695057 ZINC11695057
 29 32 0 0 0
SMALL
GASTEIGER

@<TRIPOS>ATOM
      1 C          14.2170   39.2503    9.4743 C.ar    1  UNL1        0.1659
      2 C          14.4785   40.9808    8.0571 C.ar    1  UNL1        0.0923
      3 C          15.7215   41.0293    8.7159 C.ar    1  UNL1        0.0886
      4 N          13.6554   39.9852    8.4912 N.ar    1  UNL1       -0.2238
      5 S          15.7584   39.7838    9.8536 S.2     1  UNL1       -0.0481
      6 C          14.0191   41.9282    7.0176 C.ar    1  UNL1        0.0183
      7 C          14.7851   42.1821    5.8694 C.ar    1  UNL1        0.0015
      8 C          14.3525   43.1098    4.9177 C.ar    1  UNL1        0.0000
      9 C          13.1543   43.8014    5.1114 C.ar    1  UNL1        0.0000
     10 C          12.3919   43.5686    6.2588 C.ar    1  UNL1        0.0000
     11 C          12.8256   42.6402    7.2095 C.ar    1  UNL1        0.0015
     12 C          12.1886   37.8169   10.0086 C.2     1  UNL1        0.2683
     13 N          13.5799   38.1409   10.1141 N.am    1  UNL1       -0.2594
     14 O          11.4203   38.5324    9.3102 O.2     1  UNL1       -0.2681
     15 H          14.1415   37.5541   10.6705 H       1  UNL1        0.1571
     16 C          13.1798   34.8732    9.8145 C.3     1  UNL1        0.1539
     17 C          10.4157   35.3648   11.9982 C.ar    1  UNL1        0.1218
     18 C          10.5678   36.6840   11.5915 C.ar    1  UNL1        0.0458
     19 C          11.6372   36.6436   10.7149 C.ar    1  UNL1        0.1330
     20 N          12.0781   35.3742   10.6198 N.ar    1  UNL1       -0.2443
     21 N          11.3442   34.5969   11.3930 N.ar    1  UNL1       -0.1675
     22 C          16.8877   41.8731    8.3800 C.2     1  UNL1        0.2030
     23 O          18.0260   41.5335    8.8030 O.2     1  UNL1       -0.2860
     24 C          16.7517   43.1185    7.5922 C.ar    1  UNL1        0.0395
     25 C          17.7061   43.4345    6.6128 C.ar    1  UNL1        0.0032
     26 C          17.5807   44.5982    5.8485 C.ar    1  UNL1        0.0001
     27 C          16.4963   45.4549    6.0530 C.ar    1  UNL1        0.0000
     28 C          15.5361   45.1468    7.0197 C.ar    1  UNL1        0.0001
     29 C          15.6622   43.9829    7.7834 C.ar    1  UNL1        0.0032
@<TRIPOS>BOND
     1    16    20    1
     2    17    18   ar
     3    19    12    1
     4    19    20   ar
     5    12    13   am
     6     1     5   ar
     7     2     4   ar
     8     2     6    1
     9     3     5   ar
    10     3    22    1
    11    22    24    1
    12    25    26   ar
    13    27    28   ar
    14    29    24   ar
    15     7     8   ar
    16     9    10   ar
    17    11     6   ar
    18    20    21   ar
    19    13     1    1
    20    17    21   ar
    21    18    19   ar
    22    12    14    2
    23     1     4   ar
    24     2     3   ar
    25    22    23    2
    26    24    25   ar
    27    26    27   ar
    28    28    29   ar
    29     6     7   ar
    30     8     9   ar
    31    10    11   ar
    32    13    15    1
@<TRIPOS>MOLECULE
MolPort-005-296-499 11695057 CSSS00106588480 MCULE-9651725630 PKTADVUQVLQCER-UHFFFAOYSA-N PubChem-42110475 ZINC000011695057 ZINC11695057
 29 32 0 0 0
SMALL
GASTEIGER

@<TRIPOS>ATOM
      1 C          11.8407   40.3118    7.6976 C.ar    1  UNL1        0.1659
      2 C          13.6642   39.7953    8.9139 C.ar    1  UNL1        0.0923
      3 C          14.1763   40.8783    8.1746 C.ar    1  UNL1        0.0886
      4 N          12.3642   39.4950    8.6361 N.ar    1  UNL1       -0.2238
      5 S          12.9489   41.4500    7.1678 S.2     1  UNL1       -0.0481
      6 C          14.4286   38.9764    9.8804 C.ar    1  UNL1        0.0183
      7 C          14.3689   39.2275   11.2599 C.ar    1  UNL1        0.0015
      8 C          15.1288   38.4677   12.1537 C.ar    1  UNL1        0.0000
      9 C          15.9651   37.4564   11.6746 C.ar    1  UNL1        0.0000
     10 C          16.0447   37.2087   10.3020 C.ar    1  UNL1        0.0000
     11 C          15.2839   37.9690    9.4093 C.ar    1  UNL1        0.0015
     12 C           9.3214   40.3858    8.0177 C.2     1  UNL1        0.2683
     13 N          10.4969   40.2260    7.2148 N.am    1  UNL1       -0.2594
     14 O           9.4218   40.6217    9.2522 O.2     1  UNL1       -0.2681
     15 H          10.3700   40.0427    6.2559 H       1  UNL1        0.1571
     16 C           6.8326   42.1484    8.6375 C.3     1  UNL1        0.1539
     17 C           6.2885   39.6247    6.1910 C.ar    1  UNL1        0.1218
     18 C           7.6240   39.3464    6.4509 C.ar    1  UNL1        0.0458
     19 C           7.9798   40.2764    7.4113 C.ar    1  UNL1        0.1330
     20 N           6.9116   41.0481    7.6909 N.ar    1  UNL1       -0.2443
     21 N           5.8867   40.6593    6.9567 N.ar    1  UNL1       -0.1675
     22 C          15.4804   41.5519    8.3481 C.2     1  UNL1        0.2030
     23 O          16.2266   41.1964    9.3004 O.2     1  UNL1       -0.2860
     24 C          15.9184   42.6506    7.4586 C.ar    1  UNL1        0.0395
     25 C          17.2784   42.9885    7.3817 C.ar    1  UNL1        0.0032
     26 C          17.7089   44.0118    6.5322 C.ar    1  UNL1        0.0001
     27 C          16.7834   44.7039    5.7472 C.ar    1  UNL1        0.0000
     28 C          15.4282   44.3712    5.8097 C.ar    1  UNL1        0.0001
     29 C          14.9986   43.3477    6.6593 C.ar    1  UNL1        0.0032
@<TRIPOS>BOND
     1    16    20    1
     2    17    18   ar
     3    19    12    1
     4    19    20   ar
     5    12    13   am
     6     1     5   ar
     7     2     4   ar
     8     2     6    1
     9     3     5   ar
    10     3    22    1
    11    22    24    1
    12    25    26   ar
    13    27    28   ar
    14    29    24   ar
    15     7     8   ar
    16     9    10   ar
    17    11     6   ar
    18    20    21   ar
    19    13     1    1
    20    17    21   ar
    21    18    19   ar
    22    12    14    2
    23     1     4   ar
    24     2     3   ar
    25    22    23    2
    26    24    25   ar
    27    26    27   ar
    28    28    29   ar
    29     6     7   ar
    30     8     9   ar
    31    10    11   ar
    32    13    15    1
@<TRIPOS>MOLECULE
MolPort-005-296-499 11695057 CSSS00106588480 MCULE-9651725630 PKTADVUQVLQCER-UHFFFAOYSA-N PubChem-42110475 ZINC000011695057 ZINC11695057
 29 32 0 0 0
SMALL
GASTEIGER

@<TRIPOS>ATOM
      1 C          11.5053   38.7966    8.9749 C.ar    1  UNL1        0.1659
      2 C          13.7089   39.2111    9.1842 C.ar    1  UNL1        0.0923
      3 C          13.6650   37.9092    9.7178 C.ar    1  UNL1        0.0886
      4 N          12.4993   39.6878    8.7758 N.ar    1  UNL1       -0.2238
      5 S          12.0662   37.3735    9.6566 S.2     1  UNL1       -0.0481
      6 C          14.9148   40.0637    9.0963 C.ar    1  UNL1        0.0183
      7 C          16.0485   39.8108    9.8840 C.ar    1  UNL1        0.0015
      8 C          17.1633   40.6509    9.8148 C.ar    1  UNL1        0.0000
      9 C          17.1503   41.7596    8.9650 C.ar    1  UNL1        0.0000
     10 C          16.0208   42.0303    8.1886 C.ar    1  UNL1        0.0000
     11 C          14.9067   41.1890    8.2583 C.ar    1  UNL1        0.0015
     12 C           9.6795   39.9144    7.6069 C.2     1  UNL1        0.2683
     13 N          10.1349   39.0305    8.6379 N.am    1  UNL1       -0.2594
     14 O          10.5090   40.5616    6.9119 O.2     1  UNL1       -0.2681
     15 H           9.4514   38.5462    9.1551 H       1  UNL1        0.1571
     16 C           7.6489   41.5848    9.2717 C.3     1  UNL1        0.1539
     17 C           6.2469   39.9293    6.4531 C.ar    1  UNL1        0.1218
     18 C           7.5564   39.4966    6.2901 C.ar    1  UNL1        0.0458
     19 C           8.2359   40.0789    7.3451 C.ar    1  UNL1        0.1330
     20 N           7.3694   40.8063    8.0763 N.ar    1  UNL1       -0.2443
     21 N           6.1660   40.7200    7.5423 N.ar    1  UNL1       -0.1675
     22 C          14.8072   37.0517   10.0980 C.2     1  UNL1        0.2030
     23 O          15.0345   36.8488   11.3217 O.2     1  UNL1       -0.2860
     24 C          15.7080   36.4541    9.0872 C.ar    1  UNL1        0.0395
     25 C          15.1773   35.9407    7.8936 C.ar    1  UNL1        0.0032
     26 C          16.0179   35.3899    6.9219 C.ar    1  UNL1        0.0001
     27 C          17.3984   35.3519    7.1325 C.ar    1  UNL1        0.0000
     28 C          17.9386   35.8668    8.3134 C.ar    1  UNL1        0.0001
     29 C          17.0974   36.4176    9.2844 C.ar    1  UNL1        0.0032
@<TRIPOS>BOND
     1    16    20    1
     2    17    18   ar
     3    19    12    1
     4    19    20   ar
     5    12    13   am
     6     1     5   ar
     7     2     4   ar
     8     2     6    1
     9     3     5   ar
    10     3    22    1
    11    22    24    1
    12    25    26   ar
    13    27    28   ar
    14    29    24   ar
    15     7     8   ar
    16     9    10   ar
    17    11     6   ar
    18    20    21   ar
    19    13     1    1
    20    17    21   ar
    21    18    19   ar
    22    12    14    2
    23     1     4   ar
    24     2     3   ar
    25    22    23    2
    26    24    25   ar
    27    26    27   ar
    28    28    29   ar
    29     6     7   ar
    30     8     9   ar
    31    10    11   ar
    32    13    15    1
@<TRIPOS>MOLECULE
MolPort-005-296-499 11695057 CSSS00106588480 MCULE-9651725630 PKTADVUQVLQCER-UHFFFAOYSA-N PubChem-42110475 ZINC000011695057 ZINC11695057
 29 32 0 0 0
SMALL
GASTEIGER

@<TRIPOS>ATOM
      1 C          10.8805   41.8684    8.1507 C.ar    1  UNL1        0.1659
      2 C          13.0778   42.0518    7.6925 C.ar    1  UNL1        0.0923
      3 C          13.1195   40.9861    8.6112 C.ar    1  UNL1        0.0886
      4 N          11.8249   42.5292    7.4481 N.ar    1  UNL1       -0.2238
      5 S          11.5390   40.6580    9.1024 S.2     1  UNL1       -0.0481
      6 C          14.2540   42.6833    7.0546 C.ar    1  UNL1        0.0183
      7 C          15.4655   42.8384    7.7457 C.ar    1  UNL1        0.0015
      8 C          16.5532   43.4726    7.1389 C.ar    1  UNL1        0.0000
      9 C          16.4355   43.9686    5.8382 C.ar    1  UNL1        0.0000
     10 C          15.2289   43.8344    5.1470 C.ar    1  UNL1        0.0000
     11 C          14.1420   43.1994    5.7548 C.ar    1  UNL1        0.0015
     12 C           8.7715   42.9988    9.0044 C.2     1  UNL1        0.2683
     13 N           9.4810   42.1574    8.0877 N.am    1  UNL1       -0.2594
     14 O           9.3795   43.5529    9.9600 O.2     1  UNL1       -0.2681
     15 H           8.9651   41.7457    7.3572 H       1  UNL1        0.1571
     16 C           6.4625   41.5190   10.4756 C.3     1  UNL1        0.1539
     17 C           5.3954   44.0137    8.1759 C.ar    1  UNL1        0.1218
     18 C           6.7634   44.1610    7.9879 C.ar    1  UNL1        0.0458
     19 C           7.3220   43.2276    8.8427 C.ar    1  UNL1        0.1330
     20 N           6.3339   42.5777    9.4878 N.ar    1  UNL1       -0.2443
     21 N           5.1676   43.0482    9.0892 N.ar    1  UNL1       -0.1675
     22 C          14.2838   40.1484    8.9680 C.2     1  UNL1        0.2030
     23 O          15.4427   40.5843    8.7288 O.2     1  UNL1       -0.2860
     24 C          14.1269   38.8035    9.5652 C.ar    1  UNL1        0.0395
     25 C          14.2490   38.6359   10.9534 C.ar    1  UNL1        0.0032
     26 C          14.0852   37.3746   11.5334 C.ar    1  UNL1        0.0001
     27 C          13.7925   36.2692   10.7309 C.ar    1  UNL1        0.0000
     28 C          13.6611   36.4254    9.3489 C.ar    1  UNL1        0.0001
     29 C          13.8249   37.6869    8.7698 C.ar    1  UNL1        0.0032
@<TRIPOS>BOND
     1    16    20    1
     2    17    18   ar
     3    19    12    1
     4    19    20   ar
     5    12    13   am
     6     1     5   ar
     7     2     4   ar
     8     2     6    1
     9     3     5   ar
    10     3    22    1
    11    22    24    1
    12    25    26   ar
    13    27    28   ar
    14    29    24   ar
    15     7     8   ar
    16     9    10   ar
    17    11     6   ar
    18    20    21   ar
    19    13     1    1
    20    17    21   ar
    21    18    19   ar
    22    12    14    2
    23     1     4   ar
    24     2     3   ar
    25    22    23    2
    26    24    25   ar
    27    26    27   ar
    28    28    29   ar
    29     6     7   ar
    30     8     9   ar
    31    10    11   ar
    32    13    15    1
@<TRIPOS>MOLECULE
MolPort-005-296-499 11695057 CSSS00106588480 MCULE-9651725630 PKTADVUQVLQCER-UHFFFAOYSA-N PubChem-42110475 ZINC000011695057 ZINC11695057
 29 32 0 0 0
SMALL
GASTEIGER

@<TRIPOS>ATOM
      1 C           7.1771   41.5186    8.1215 C.ar    1  UNL1        0.1659
      2 C           9.3854   41.1891    7.8277 C.ar    1  UNL1        0.0923
      3 C           8.9731   41.2182    6.4821 C.ar    1  UNL1        0.0886
      4 N           8.3738   41.3584    8.7251 N.ar    1  UNL1       -0.2238
      5 S           7.3046   41.4678    6.4525 S.2     1  UNL1       -0.0481
      6 C          10.7667   40.9450    8.2983 C.ar    1  UNL1        0.0183
      7 C          11.1415   39.7144    8.8593 C.ar    1  UNL1        0.0015
      8 C          12.4413   39.5166    9.3338 C.ar    1  UNL1        0.0000
      9 C          13.3758   40.5524    9.2621 C.ar    1  UNL1        0.0000
     10 C          13.0089   41.7869    8.7205 C.ar    1  UNL1        0.0000
     11 C          11.7089   41.9833    8.2460 C.ar    1  UNL1        0.0015
     12 C           5.7815   41.6495   10.2404 C.2     1  UNL1        0.2683
     13 N           5.9440   41.7171    8.8189 N.am    1  UNL1       -0.2594
     14 O           6.7698   41.3983   10.9822 O.2     1  UNL1       -0.2681
     15 H           5.1446   41.9157    8.2797 H       1  UNL1        0.1571
     16 C           3.9216   39.5071   11.5196 C.3     1  UNL1        0.1539
     17 C           2.6325   42.8213   11.5913 C.ar    1  UNL1        0.1218
     18 C           3.8330   43.1029   10.9526 C.ar    1  UNL1        0.0458
     19 C           4.4575   41.8723   10.8543 C.ar    1  UNL1        0.1330
     20 N           3.6638   40.9331   11.4043 N.ar    1  UNL1       -0.2443
     21 N           2.5597   41.5002   11.8515 N.ar    1  UNL1       -0.1675
     22 C           9.8287   41.2257    5.2769 C.2     1  UNL1        0.2030
     23 O          10.3542   42.3121    4.9109 O.2     1  UNL1       -0.2860
     24 C          10.0579   40.0052    4.4720 C.ar    1  UNL1        0.0395
     25 C          11.3546   39.4826    4.3474 C.ar    1  UNL1        0.0032
     26 C          11.5834   38.3202    3.6053 C.ar    1  UNL1        0.0001
     27 C          10.5162   37.6661    2.9849 C.ar    1  UNL1        0.0000
     28 C           9.2203   38.1727    3.1083 C.ar    1  UNL1        0.0001
     29 C           8.9924   39.3350    3.8505 C.ar    1  UNL1        0.0032
@<TRIPOS>BOND
     1    16    20    1
     2    17    18   ar
     3    19    12    1
     4    19    20   ar
     5    12    13   am
     6     1     5   ar
     7     2     4   ar
     8     2     6    1
     9     3     5   ar
    10     3    22    1
    11    22    24    1
    12    25    26   ar
    13    27    28   ar
    14    29    24   ar
    15     7     8   ar
    16     9    10   ar
    17    11     6   ar
    18    20    21   ar
    19    13     1    1
    20    17    21   ar
    21    18    19   ar
    22    12    14    2
    23     1     4   ar
    24     2     3   ar
    25    22    23    2
    26    24    25   ar
    27    26    27   ar
    28    28    29   ar
    29     6     7   ar
    30     8     9   ar
    31    10    11   ar
    32    13    15    1
@<TRIPOS>MOLECULE
MolPort-005-296-499 11695057 CSSS00106588480 MCULE-9651725630 PKTADVUQVLQCER-UHFFFAOYSA-N PubChem-42110475 ZINC000011695057 ZINC11695057
 29 32 0 0 0
SMALL
GASTEIGER

@<TRIPOS>ATOM
      1 C           0.8423   39.0246    4.8907 C.ar    1  UNL1        0.1659
      2 C           1.8052   37.7415    3.3102 C.ar    1  UNL1        0.0923
      3 C           1.4695   38.8624    2.5277 C.ar    1  UNL1        0.0886
      4 N           1.4496   37.8496    4.6214 N.ar    1  UNL1       -0.2238
      5 S           0.7192   39.9933    3.5302 S.2     1  UNL1       -0.0481
      6 C           2.4370   36.5012    2.8087 C.ar    1  UNL1        0.0183
      7 C           3.4645   36.5383    1.8535 C.ar    1  UNL1        0.0015
      8 C           4.0218   35.3539    1.3633 C.ar    1  UNL1        0.0000
      9 C           3.5482   34.1200    1.8157 C.ar    1  UNL1        0.0000
     10 C           2.5145   34.0710    2.7542 C.ar    1  UNL1        0.0000
     11 C           1.9584   35.2563    3.2440 C.ar    1  UNL1        0.0015
     12 C          -0.7199   40.3081    6.4291 C.2     1  UNL1        0.2683
     13 N           0.3659   39.4065    6.1843 N.am    1  UNL1       -0.2594
     14 O          -1.3386   40.8349    5.4650 O.2     1  UNL1       -0.2681
     15 H           0.8197   39.0194    6.9675 H       1  UNL1        0.1571
     16 C           0.8806   41.9699    8.5177 C.3     1  UNL1        0.1539
     17 C          -2.2578   40.7619    9.6762 C.ar    1  UNL1        0.1218
     18 C          -2.3161   40.2307    8.3944 C.ar    1  UNL1        0.0458
     19 C          -1.1277   40.6316    7.8106 C.ar    1  UNL1        0.1330
     20 N          -0.4226   41.3530    8.7034 N.ar    1  UNL1       -0.2443
     21 N          -1.1001   41.4353    9.8324 N.ar    1  UNL1       -0.1675
     22 C           1.8520   39.1302    1.1253 C.2     1  UNL1        0.2030
     23 O           2.9966   39.6024    0.8868 O.2     1  UNL1       -0.2860
     24 C           0.9202   38.8916    0.0006 C.ar    1  UNL1        0.0395
     25 C           1.1690   37.8484   -0.9048 C.ar    1  UNL1        0.0032
     26 C           0.2879   37.5997   -1.9613 C.ar    1  UNL1        0.0001
     27 C          -0.8537   38.3893   -2.1194 C.ar    1  UNL1        0.0000
     28 C          -1.1156   39.4255   -1.2200 C.ar    1  UNL1        0.0001
     29 C          -0.2342   39.6733   -0.1638 C.ar    1  UNL1        0.0032
@<TRIPOS>BOND
     1    16    20    1
     2    17    18   ar
     3    19    12    1
     4    19    20   ar
     5    12    13   am
     6     1     5   ar
     7     2     4   ar
     8     2     6    1
     9     3     5   ar
    10     3    22    1
    11    22    24    1
    12    25    26   ar
    13    27    28   ar
    14    29    24   ar
    15     7     8   ar
    16     9    10   ar
    17    11     6   ar
    18    20    21   ar
    19    13     1    1
    20    17    21   ar
    21    18    19   ar
    22    12    14    2
    23     1     4   ar
    24     2     3   ar
    25    22    23    2
    26    24    25   ar
    27    26    27   ar
    28    28    29   ar
    29     6     7   ar
    30     8     9   ar
    31    10    11   ar
    32    13    15    1
