@<TRIPOS>MOLECULE
MolPort-002-604-707 16974898 CSSS00160675836 MCULE-5119078341 PubChem-1989596 ZINC000016974898 ZINC16974898
 29 32 0 0 0
SMALL
GASTEIGER

@<TRIPOS>ATOM
      1 C           6.4144   42.6111   17.9659 C.ar    1  UNL1        0.1571
      2 C           5.1251   43.0679   18.1916 C.ar    1  UNL1        0.0689
      3 C           3.9708   43.1365   17.4179 C.ar    1  UNL1        0.0074
      4 C           2.8444   43.7370   18.0063 C.ar    1  UNL1        0.0179
      5 C           1.6446   43.8300   17.2978 C.ar    1  UNL1        0.0015
      6 C           0.5291   44.4313   17.8892 C.ar    1  UNL1        0.0001
      7 C           0.6083   44.9429   19.1892 C.ar    1  UNL1        0.0015
      8 C           1.8036   44.8586   19.9102 C.ar    1  UNL1        0.0192
      9 C           2.9267   44.2597   19.3344 C.ar    1  UNL1        0.0829
     10 C           5.1676   43.5906   19.4511 C.ar    1  UNL1        0.1621
     11 N           6.4061   43.4757   19.9543 N.ar    1  UNL1       -0.2329
     12 N           7.1809   42.8841   19.0507 N.ar    1  UNL1       -0.1527
     13 N           4.0975   44.1852   20.0360 N.ar    1  UNL1       -0.2268
     14 C           7.7467   42.7145   15.7902 C.2     1  UNL1        0.2535
     15 N           6.9428   42.0364   16.7646 N.am    1  UNL1       -0.2643
     16 O           7.7826   43.9741   15.7726 O.2     1  UNL1       -0.2697
     17 H           6.7350   41.0896   16.5925 H       1  UNL1        0.1566
     18 C           8.4842   41.9261   14.7741 C.ar    1  UNL1        0.0876
     19 C           8.4595   42.2477   13.3951 C.ar    1  UNL1        0.1430
     20 C           9.1850   41.4542   12.4893 C.ar    1  UNL1        0.0371
     21 C           9.9265   40.3595   12.9343 C.ar    1  UNL1        0.0031
     22 C           9.9533   40.0434   14.2914 C.ar    1  UNL1        0.0003
     23 C           9.2378   40.8217   15.2024 C.ar    1  UNL1        0.0076
     24 C           8.2491   44.3131   12.0390 C.3     1  UNL1        0.2525
     25 O           7.7215   43.3466   12.9380 O.3     1  UNL1       -0.4713
     26 C           6.8556   43.9197   21.2643 C.3     1  UNL1        0.1292
     27 C           6.4633   45.3711   21.4858 C.3     1  UNL1        0.0264
     28 C           6.7224   46.6606   19.3683 C.3     1  UNL1        0.0001
     29 C           7.3700   46.2922   20.6899 C.3     1  UNL1        0.0021
@<TRIPOS>BOND
     1    28    29    1
     2    29    27    1
     3    27    26    1
     4    26    11    1
     5     1    15    1
     6     1     2   ar
     7    14    18    1
     8    19    25    1
     9    19    20   ar
    10    24    25    1
    11    21    22   ar
    12    23    18   ar
    13     3     4   ar
    14     5     6   ar
    15     7     8   ar
    16     9    13   ar
    17     9     4   ar
    18    10    11   ar
    19    10     2   ar
    20    11    12   ar
    21    15    14   am
    22     1    12   ar
    23    14    16    2
    24    18    19   ar
    25    20    21   ar
    26    22    23   ar
    27     2     3   ar
    28     4     5   ar
    29     6     7   ar
    30     8     9   ar
    31    10    13   ar
    32    15    17    1
@<TRIPOS>MOLECULE
MolPort-002-604-707 16974898 CSSS00160675836 MCULE-5119078341 PubChem-1989596 ZINC000016974898 ZINC16974898
 29 32 0 0 0
SMALL
GASTEIGER

@<TRIPOS>ATOM
      1 C           2.4667   42.2030   12.7053 C.ar    1  UNL1        0.1571
      2 C           1.4379   41.4004   13.1733 C.ar    1  UNL1        0.0689
      3 C           1.2230   40.0265   13.2182 C.ar    1  UNL1        0.0074
      4 C          -0.0092   39.5911   13.7358 C.ar    1  UNL1        0.0179
      5 C          -0.2927   38.2267   13.8267 C.ar    1  UNL1        0.0015
      6 C          -1.5219   37.8016   14.3403 C.ar    1  UNL1        0.0001
      7 C          -2.4724   38.7372   14.7635 C.ar    1  UNL1        0.0015
      8 C          -2.2033   40.1067   14.6769 C.ar    1  UNL1        0.0192
      9 C          -0.9796   40.5480   14.1675 C.ar    1  UNL1        0.0829
     10 C           0.4808   42.2823   13.5827 C.ar    1  UNL1        0.1621
     11 N           0.8919   43.5405   13.3630 N.ar    1  UNL1       -0.2329
     12 N           2.1040   43.5048   12.8187 N.ar    1  UNL1       -0.1527
     13 N          -0.7201   41.8868   14.0748 N.ar    1  UNL1       -0.2268
     14 C           4.2761   42.3574   10.9105 C.2     1  UNL1        0.2535
     15 N           3.6915   41.7875   12.0890 N.am    1  UNL1       -0.2643
     16 O           3.5759   43.0735   10.1457 O.2     1  UNL1       -0.2697
     17 H           4.1759   41.0428   12.5134 H       1  UNL1        0.1566
     18 C           5.6866   42.0506   10.5723 C.ar    1  UNL1        0.0876
     19 C           6.0704   41.5159    9.3182 C.ar    1  UNL1        0.1430
     20 C           7.4283   41.2510    9.0684 C.ar    1  UNL1        0.0371
     21 C           8.3964   41.5102   10.0389 C.ar    1  UNL1        0.0031
     22 C           8.0201   42.0384   11.2725 C.ar    1  UNL1        0.0003
     23 C           6.6759   42.3062   11.5351 C.ar    1  UNL1        0.0076
     24 C           5.3900   40.5250    7.1493 C.3     1  UNL1        0.2525
     25 O           5.1072   41.2554    8.3355 O.3     1  UNL1       -0.4713
     26 C           0.1538   44.7588   13.6567 C.3     1  UNL1        0.1292
     27 C          -0.6968   44.5656   14.9012 C.3     1  UNL1        0.0264
     28 C          -0.1002   44.0094   17.2567 C.3     1  UNL1        0.0001
     29 C           0.0605   45.0193   16.1360 C.3     1  UNL1        0.0021
@<TRIPOS>BOND
     1    28    29    1
     2    29    27    1
     3    27    26    1
     4    26    11    1
     5     1    15    1
     6     1     2   ar
     7    14    18    1
     8    19    25    1
     9    19    20   ar
    10    24    25    1
    11    21    22   ar
    12    23    18   ar
    13     3     4   ar
    14     5     6   ar
    15     7     8   ar
    16     9    13   ar
    17     9     4   ar
    18    10    11   ar
    19    10     2   ar
    20    11    12   ar
    21    15    14   am
    22     1    12   ar
    23    14    16    2
    24    18    19   ar
    25    20    21   ar
    26    22    23   ar
    27     2     3   ar
    28     4     5   ar
    29     6     7   ar
    30     8     9   ar
    31    10    13   ar
    32    15    17    1
@<TRIPOS>MOLECULE
MolPort-002-604-707 16974898 CSSS00160675836 MCULE-5119078341 PubChem-1989596 ZINC000016974898 ZINC16974898
 29 32 0 0 0
SMALL
GASTEIGER

@<TRIPOS>ATOM
      1 C          16.2122   37.3295    9.3712 C.ar    1  UNL1        0.1571
      2 C          16.6198   36.2338    8.6261 C.ar    1  UNL1        0.0689
      3 C          16.1579   35.6254    7.4632 C.ar    1  UNL1        0.0074
      4 C          16.8288   34.4642    7.0422 C.ar    1  UNL1        0.0179
      5 C          16.4328   33.8051    5.8764 C.ar    1  UNL1        0.0015
      6 C          17.1036   32.6490    5.4657 C.ar    1  UNL1        0.0001
      7 C          18.1710   32.1464    6.2180 C.ar    1  UNL1        0.0015
      8 C          18.5776   32.7947    7.3885 C.ar    1  UNL1        0.0192
      9 C          17.9189   33.9515    7.8119 C.ar    1  UNL1        0.0829
     10 C          17.6553   35.7057    9.3404 C.ar    1  UNL1        0.1621
     11 N          17.8554   36.4223   10.4570 N.ar    1  UNL1       -0.2329
     12 N          16.9724   37.4154   10.4910 N.ar    1  UNL1       -0.1527
     13 N          18.3108   34.5802    8.9607 N.ar    1  UNL1       -0.2268
     14 C          13.9742   37.9045    8.2850 C.2     1  UNL1        0.2535
     15 N          15.1060   38.2026    9.1131 N.am    1  UNL1       -0.2643
     16 O          14.0311   36.9504    7.4637 O.2     1  UNL1       -0.2697
     17 H          15.1248   39.0878    9.5434 H       1  UNL1        0.1566
     18 C          12.7659   38.7599    8.3628 C.ar    1  UNL1        0.0876
     19 C          12.8233   40.1288    8.7216 C.ar    1  UNL1        0.1430
     20 C          11.6349   40.8782    8.7733 C.ar    1  UNL1        0.0371
     21 C          10.4061   40.2892    8.4745 C.ar    1  UNL1        0.0031
     22 C          10.3486   38.9427    8.1191 C.ar    1  UNL1        0.0003
     23 C          11.5199   38.1861    8.0639 C.ar    1  UNL1        0.0076
     24 C          14.3582   41.2726   10.2980 C.3     1  UNL1        0.2525
     25 O          14.0520   40.7311    9.0199 O.3     1  UNL1       -0.4713
     26 C          18.8596   36.1745   11.4794 C.3     1  UNL1        0.1292
     27 C          18.1953   35.6773   12.7527 C.3     1  UNL1        0.0264
     28 C          19.4750   33.7076   13.5872 C.3     1  UNL1        0.0001
     29 C          19.2410   35.1984   13.7433 C.3     1  UNL1        0.0021
@<TRIPOS>BOND
     1    28    29    1
     2    29    27    1
     3    27    26    1
     4    26    11    1
     5     1    15    1
     6     1     2   ar
     7    14    18    1
     8    19    25    1
     9    19    20   ar
    10    24    25    1
    11    21    22   ar
    12    23    18   ar
    13     3     4   ar
    14     5     6   ar
    15     7     8   ar
    16     9    13   ar
    17     9     4   ar
    18    10    11   ar
    19    10     2   ar
    20    11    12   ar
    21    15    14   am
    22     1    12   ar
    23    14    16    2
    24    18    19   ar
    25    20    21   ar
    26    22    23   ar
    27     2     3   ar
    28     4     5   ar
    29     6     7   ar
    30     8     9   ar
    31    10    13   ar
    32    15    17    1
@<TRIPOS>MOLECULE
MolPort-002-604-707 16974898 CSSS00160675836 MCULE-5119078341 PubChem-1989596 ZINC000016974898 ZINC16974898
 29 32 0 0 0
SMALL
GASTEIGER

@<TRIPOS>ATOM
      1 C          12.6106   42.1744    7.0603 C.ar    1  UNL1        0.1571
      2 C          13.5036   41.4862    7.8668 C.ar    1  UNL1        0.0689
      3 C          13.3845   40.4306    8.7654 C.ar    1  UNL1        0.0074
      4 C          14.5491   40.0426    9.4502 C.ar    1  UNL1        0.0179
      5 C          14.5125   38.9818   10.3577 C.ar    1  UNL1        0.0015
      6 C          15.6748   38.6035   11.0370 C.ar    1  UNL1        0.0001
      7 C          16.8769   39.2839   10.8136 C.ar    1  UNL1        0.0015
      8 C          16.9284   40.3492    9.9091 C.ar    1  UNL1        0.0192
      9 C          15.7765   40.7388    9.2213 C.ar    1  UNL1        0.0829
     10 C          14.6906   42.1341    7.6862 C.ar    1  UNL1        0.1621
     11 N          14.5286   43.1611    6.8381 N.ar    1  UNL1       -0.2329
     12 N          13.2567   43.2008    6.4537 N.ar    1  UNL1       -0.1527
     13 N          15.8250   41.7857    8.3438 N.ar    1  UNL1       -0.2268
     14 C          10.5680   40.7138    6.5980 C.2     1  UNL1        0.2535
     15 N          11.2005   41.9570    6.9295 N.am    1  UNL1       -0.2643
     16 O          11.2443   39.7827    6.0843 O.2     1  UNL1       -0.2697
     17 H          10.6123   42.7318    7.0811 H       1  UNL1        0.1566
     18 C           9.1092   40.5562    6.8102 C.ar    1  UNL1        0.0876
     19 C           8.4245   41.1744    7.8848 C.ar    1  UNL1        0.1430
     20 C           7.0389   40.9802    8.0219 C.ar    1  UNL1        0.0371
     21 C           6.3355   40.1896    7.1128 C.ar    1  UNL1        0.0031
     22 C           7.0079   39.5826    6.0536 C.ar    1  UNL1        0.0003
     23 C           8.3833   39.7659    5.9050 C.ar    1  UNL1        0.0076
     24 C           8.6699   43.2598    9.2039 C.3     1  UNL1        0.2525
     25 O           9.1202   41.9731    8.8010 O.3     1  UNL1       -0.4713
     26 C          15.5538   44.0944    6.3987 C.3     1  UNL1        0.1292
     27 C          16.8526   43.3527    6.1289 C.3     1  UNL1        0.0264
     28 C          18.0506   43.9421    8.2340 C.3     1  UNL1        0.0001
     29 C          18.0270   44.1068    6.7260 C.3     1  UNL1        0.0021
@<TRIPOS>BOND
     1    28    29    1
     2    29    27    1
     3    27    26    1
     4    26    11    1
     5     1    15    1
     6     1     2   ar
     7    14    18    1
     8    19    25    1
     9    19    20   ar
    10    24    25    1
    11    21    22   ar
    12    23    18   ar
    13     3     4   ar
    14     5     6   ar
    15     7     8   ar
    16     9    13   ar
    17     9     4   ar
    18    10    11   ar
    19    10     2   ar
    20    11    12   ar
    21    15    14   am
    22     1    12   ar
    23    14    16    2
    24    18    19   ar
    25    20    21   ar
    26    22    23   ar
    27     2     3   ar
    28     4     5   ar
    29     6     7   ar
    30     8     9   ar
    31    10    13   ar
    32    15    17    1
@<TRIPOS>MOLECULE
MolPort-002-604-707 16974898 CSSS00160675836 MCULE-5119078341 PubChem-1989596 ZINC000016974898 ZINC16974898
 29 32 0 0 0
SMALL
GASTEIGER

@<TRIPOS>ATOM
      1 C           1.7479   43.9984   19.3176 C.ar    1  UNL1        0.1571
      2 C           1.0421   43.5216   18.2239 C.ar    1  UNL1        0.0689
      3 C           1.3682   43.2640   16.8961 C.ar    1  UNL1        0.0074
      4 C           0.3280   42.8263   16.0581 C.ar    1  UNL1        0.0179
      5 C           0.5801   42.5335   14.7162 C.ar    1  UNL1        0.0015
      6 C          -0.4606   42.1011   13.8883 C.ar    1  UNL1        0.0001
      7 C          -1.7565   41.9610   14.3971 C.ar    1  UNL1        0.0015
      8 C          -2.0244   42.2522   15.7384 C.ar    1  UNL1        0.0192
      9 C          -0.9956   42.6839   16.5791 C.ar    1  UNL1        0.0829
     10 C          -0.2367   43.3865   18.6799 C.ar    1  UNL1        0.1621
     11 N          -0.3097   43.7719   19.9630 N.ar    1  UNL1       -0.2329
     12 N           0.8984   44.1562   20.3628 N.ar    1  UNL1       -0.1527
     13 N          -1.2593   42.9769   17.8880 N.ar    1  UNL1       -0.2268
     14 C           3.7617   45.0915   20.4442 C.2     1  UNL1        0.2535
     15 N           3.1263   44.3857   19.3702 N.am    1  UNL1       -0.2643
     16 O           3.0613   45.7034   21.2945 O.2     1  UNL1       -0.2697
     17 H           3.6884   44.1452   18.5984 H       1  UNL1        0.1566
     18 C           5.2419   45.1425   20.5110 C.ar    1  UNL1        0.0876
     19 C           6.0346   43.9904   20.7349 C.ar    1  UNL1        0.1430
     20 C           7.4340   44.1157   20.7847 C.ar    1  UNL1        0.0371
     21 C           8.0459   45.3579   20.6148 C.ar    1  UNL1        0.0031
     22 C           7.2669   46.4920   20.3922 C.ar    1  UNL1        0.0003
     23 C           5.8766   46.3831   20.3406 C.ar    1  UNL1        0.0076
     24 C           6.1590   41.5691   21.2556 C.3     1  UNL1        0.2525
     25 O           5.4309   42.7380   20.9031 O.3     1  UNL1       -0.4713
     26 C          -1.4990   43.7826   20.8000 C.3     1  UNL1        0.1292
     27 C          -2.3462   45.0046   20.4861 C.3     1  UNL1        0.0264
     28 C          -1.9609   47.3736   19.8128 C.3     1  UNL1        0.0001
     29 C          -1.5734   46.2762   20.7860 C.3     1  UNL1        0.0021
@<TRIPOS>BOND
     1    28    29    1
     2    29    27    1
     3    27    26    1
     4    26    11    1
     5     1    15    1
     6     1     2   ar
     7    14    18    1
     8    19    25    1
     9    19    20   ar
    10    24    25    1
    11    21    22   ar
    12    23    18   ar
    13     3     4   ar
    14     5     6   ar
    15     7     8   ar
    16     9    13   ar
    17     9     4   ar
    18    10    11   ar
    19    10     2   ar
    20    11    12   ar
    21    15    14   am
    22     1    12   ar
    23    14    16    2
    24    18    19   ar
    25    20    21   ar
    26    22    23   ar
    27     2     3   ar
    28     4     5   ar
    29     6     7   ar
    30     8     9   ar
    31    10    13   ar
    32    15    17    1
@<TRIPOS>MOLECULE
MolPort-002-604-707 16974898 CSSS00160675836 MCULE-5119078341 PubChem-1989596 ZINC000016974898 ZINC16974898
 29 32 0 0 0
SMALL
GASTEIGER

@<TRIPOS>ATOM
      1 C           2.7739   42.5990   11.9048 C.ar    1  UNL1        0.1571
      2 C           3.5630   42.8567   10.7945 C.ar    1  UNL1        0.0689
      3 C           3.5215   43.8000    9.7726 C.ar    1  UNL1        0.0074
      4 C           4.4991   43.6944    8.7682 C.ar    1  UNL1        0.0179
      5 C           4.5314   44.6131    7.7170 C.ar    1  UNL1        0.0015
      6 C           5.5056   44.4997    6.7202 C.ar    1  UNL1        0.0001
      7 C           6.4496   43.4680    6.7689 C.ar    1  UNL1        0.0015
      8 C           6.4284   42.5396    7.8144 C.ar    1  UNL1        0.0192
      9 C           5.4628   42.6396    8.8189 C.ar    1  UNL1        0.0829
     10 C           4.4909   41.8565   10.8001 C.ar    1  UNL1        0.1621
     11 N           4.2718   41.0328   11.8363 N.ar    1  UNL1       -0.2329
     12 N           3.2178   41.4729   12.5162 N.ar    1  UNL1       -0.1527
     13 N           5.4368   41.7269    9.8361 N.ar    1  UNL1       -0.2268
     14 C           0.8565   43.0535   13.5285 C.2     1  UNL1        0.2535
     15 N           1.6008   43.3037   12.3289 N.am    1  UNL1       -0.2643
     16 O           1.0107   41.9669   14.1479 O.2     1  UNL1       -0.2697
     17 H           1.2761   44.0255   11.7433 H       1  UNL1        0.1566
     18 C          -0.1319   44.0539   13.9978 C.ar    1  UNL1        0.0876
     19 C           0.2494   45.2690   14.6175 C.ar    1  UNL1        0.1430
     20 C          -0.7447   46.1707   15.0361 C.ar    1  UNL1        0.0371
     21 C          -2.0962   45.8819   14.8460 C.ar    1  UNL1        0.0031
     22 C          -2.4725   44.6874   14.2342 C.ar    1  UNL1        0.0003
     23 C          -1.4970   43.7824   13.8139 C.ar    1  UNL1        0.0076
     24 C           2.1057   46.1424   16.0105 C.3     1  UNL1        0.2525
     25 O           1.6034   45.5707   14.8099 O.3     1  UNL1       -0.4713
     26 C           5.0399   39.8465   12.1799 C.3     1  UNL1        0.1292
     27 C           4.1733   38.6059   12.0397 C.3     1  UNL1        0.0264
     28 C           2.0528   37.7179   11.0762 C.3     1  UNL1        0.0001
     29 C           3.0693   38.8429   11.0252 C.3     1  UNL1        0.0021
@<TRIPOS>BOND
     1    28    29    1
     2    29    27    1
     3    27    26    1
     4    26    11    1
     5     1    15    1
     6     1     2   ar
     7    14    18    1
     8    19    25    1
     9    19    20   ar
    10    24    25    1
    11    21    22   ar
    12    23    18   ar
    13     3     4   ar
    14     5     6   ar
    15     7     8   ar
    16     9    13   ar
    17     9     4   ar
    18    10    11   ar
    19    10     2   ar
    20    11    12   ar
    21    15    14   am
    22     1    12   ar
    23    14    16    2
    24    18    19   ar
    25    20    21   ar
    26    22    23   ar
    27     2     3   ar
    28     4     5   ar
    29     6     7   ar
    30     8     9   ar
    31    10    13   ar
    32    15    17    1
@<TRIPOS>MOLECULE
MolPort-002-604-707 16974898 CSSS00160675836 MCULE-5119078341 PubChem-1989596 ZINC000016974898 ZINC16974898
 29 32 0 0 0
SMALL
GASTEIGER

@<TRIPOS>ATOM
      1 C          15.5746   37.7002    9.2551 C.ar    1  UNL1        0.1571
      2 C          14.3904   38.4073    9.1158 C.ar    1  UNL1        0.0689
      3 C          13.0837   38.0568    8.7911 C.ar    1  UNL1        0.0074
      4 C          12.1493   39.1024    8.6938 C.ar    1  UNL1        0.0179
      5 C          10.8149   38.8285    8.3860 C.ar    1  UNL1        0.0015
      6 C           9.8920   39.8745    8.2883 C.ar    1  UNL1        0.0001
      7 C          10.2984   41.1971    8.4962 C.ar    1  UNL1        0.0015
      8 C          11.6316   41.4868    8.8033 C.ar    1  UNL1        0.0192
      9 C          12.5659   40.4533    8.9060 C.ar    1  UNL1        0.0829
     10 C          14.7516   39.7103    9.2977 C.ar    1  UNL1        0.1621
     11 N          16.0727   39.7942    9.5167 N.ar    1  UNL1       -0.2329
     12 N          16.5893   38.5699    9.4854 N.ar    1  UNL1       -0.1527
     13 N          13.8708   40.7374    9.1976 N.ar    1  UNL1       -0.2268
     14 C          14.7797   35.2740    9.2198 C.2     1  UNL1        0.2535
     15 N          15.7800   36.2924    9.0858 N.am    1  UNL1       -0.2643
     16 O          13.6981   35.5306    9.8133 O.2     1  UNL1       -0.2697
     17 H          16.6909   35.9975    8.8567 H       1  UNL1        0.1566
     18 C          15.0525   33.9095    8.7082 C.ar    1  UNL1        0.0876
     19 C          16.3204   33.5218    8.2104 C.ar    1  UNL1        0.1430
     20 C          16.5051   32.2091    7.7423 C.ar    1  UNL1        0.0371
     21 C          15.4566   31.2891    7.7651 C.ar    1  UNL1        0.0031
     22 C          14.2090   31.6689    8.2568 C.ar    1  UNL1        0.0003
     23 C          14.0106   32.9687    8.7244 C.ar    1  UNL1        0.0076
     24 C          18.6965   34.1067    8.6123 C.3     1  UNL1        0.2525
     25 O          17.3809   34.4363    8.1865 O.3     1  UNL1       -0.4713
     26 C          16.8390   41.0085    9.7479 C.3     1  UNL1        0.1292
     27 C          16.8200   41.8816    8.5041 C.3     1  UNL1        0.0264
     28 C          17.9894   43.8641    7.5469 C.3     1  UNL1        0.0001
     29 C          17.4107   43.2468    8.8062 C.3     1  UNL1        0.0021
@<TRIPOS>BOND
     1    28    29    1
     2    29    27    1
     3    27    26    1
     4    26    11    1
     5     1    15    1
     6     1     2   ar
     7    14    18    1
     8    19    25    1
     9    19    20   ar
    10    24    25    1
    11    21    22   ar
    12    23    18   ar
    13     3     4   ar
    14     5     6   ar
    15     7     8   ar
    16     9    13   ar
    17     9     4   ar
    18    10    11   ar
    19    10     2   ar
    20    11    12   ar
    21    15    14   am
    22     1    12   ar
    23    14    16    2
    24    18    19   ar
    25    20    21   ar
    26    22    23   ar
    27     2     3   ar
    28     4     5   ar
    29     6     7   ar
    30     8     9   ar
    31    10    13   ar
    32    15    17    1
@<TRIPOS>MOLECULE
MolPort-002-604-707 16974898 CSSS00160675836 MCULE-5119078341 PubChem-1989596 ZINC000016974898 ZINC16974898
 29 32 0 0 0
SMALL
GASTEIGER

@<TRIPOS>ATOM
      1 C          14.7894   35.9300    4.4545 C.ar    1  UNL1        0.1571
      2 C          15.4736   35.0837    5.3133 C.ar    1  UNL1        0.0689
      3 C          15.3165   34.7215    6.6475 C.ar    1  UNL1        0.0074
      4 C          16.2787   33.8516    7.1888 C.ar    1  UNL1        0.0179
      5 C          16.1808   33.4313    8.5170 C.ar    1  UNL1        0.0015
      6 C          17.1436   32.5678    9.0489 C.ar    1  UNL1        0.0001
      7 C          18.2079   32.1225    8.2572 C.ar    1  UNL1        0.0015
      8 C          18.3200   32.5364    6.9261 C.ar    1  UNL1        0.0192
      9 C          17.3658   33.3976    6.3790 C.ar    1  UNL1        0.0829
     10 C          16.5328   34.6395    4.5771 C.ar    1  UNL1        0.1621
     11 N          16.5062   35.1919    3.3547 N.ar    1  UNL1       -0.2329
     12 N          15.4469   35.9905    3.2700 N.ar    1  UNL1       -0.1527
     13 N          17.4803   33.8091    5.0805 N.ar    1  UNL1       -0.2268
     14 C          12.9115   37.5336    3.8057 C.2     1  UNL1        0.2535
     15 N          13.6339   36.7258    4.7444 N.am    1  UNL1       -0.2643
     16 O          13.4432   37.8466    2.7070 O.2     1  UNL1       -0.2697
     17 H          13.3061   36.7172    5.6727 H       1  UNL1        0.1566
     18 C          11.5652   38.0418    4.1624 C.ar    1  UNL1        0.0876
     19 C          11.3164   38.7714    5.3505 C.ar    1  UNL1        0.1430
     20 C          10.0129   39.2228    5.6219 C.ar    1  UNL1        0.0371
     21 C           8.9679   38.9612    4.7355 C.ar    1  UNL1        0.0031
     22 C           9.2120   38.2451    3.5649 C.ar    1  UNL1        0.0003
     23 C          10.5007   37.7904    3.2823 C.ar    1  UNL1        0.0076
     24 C          12.1930   39.8480    7.4052 C.3     1  UNL1        0.2525
     25 O          12.3588   39.0429    6.2455 O.3     1  UNL1       -0.4713
     26 C          17.4652   34.9754    2.2830 C.3     1  UNL1        0.1292
     27 C          17.2079   33.6342    1.6164 C.3     1  UNL1        0.0264
     28 C          17.4303   35.1953   -0.3143 C.3     1  UNL1        0.0001
     29 C          17.4121   33.7406    0.1160 C.3     1  UNL1        0.0021
@<TRIPOS>BOND
     1    28    29    1
     2    29    27    1
     3    27    26    1
     4    26    11    1
     5     1    15    1
     6     1     2   ar
     7    14    18    1
     8    19    25    1
     9    19    20   ar
    10    24    25    1
    11    21    22   ar
    12    23    18   ar
    13     3     4   ar
    14     5     6   ar
    15     7     8   ar
    16     9    13   ar
    17     9     4   ar
    18    10    11   ar
    19    10     2   ar
    20    11    12   ar
    21    15    14   am
    22     1    12   ar
    23    14    16    2
    24    18    19   ar
    25    20    21   ar
    26    22    23   ar
    27     2     3   ar
    28     4     5   ar
    29     6     7   ar
    30     8     9   ar
    31    10    13   ar
    32    15    17    1
@<TRIPOS>MOLECULE
MolPort-002-604-707 16974898 CSSS00160675836 MCULE-5119078341 PubChem-1989596 ZINC000016974898 ZINC16974898
 29 32 0 0 0
SMALL
GASTEIGER

@<TRIPOS>ATOM
      1 C          12.0405   40.6203    7.1350 C.ar    1  UNL1        0.1571
      2 C          12.0717   39.5566    8.0234 C.ar    1  UNL1        0.0689
      3 C          13.0783   38.9295    8.7509 C.ar    1  UNL1        0.0074
      4 C          12.7069   37.8140    9.5213 C.ar    1  UNL1        0.0179
      5 C          13.6583   37.1403   10.2902 C.ar    1  UNL1        0.0015
      6 C          13.2814   36.0298   11.0519 C.ar    1  UNL1        0.0001
      7 C          11.9539   35.5874   11.0473 C.ar    1  UNL1        0.0015
      8 C          10.9906   36.2509   10.2808 C.ar    1  UNL1        0.0192
      9 C          11.3504   37.3628    9.5155 C.ar    1  UNL1        0.0829
     10 C          10.7907   39.0871    8.0335 C.ar    1  UNL1        0.1621
     11 N          10.0315   39.8067    7.1932 N.ar    1  UNL1       -0.2329
     12 N          10.7877   40.7442    6.6309 N.ar    1  UNL1       -0.1527
     13 N          10.4105   38.0059    8.7595 N.ar    1  UNL1       -0.2268
     14 C          13.5462   42.6784    7.2628 C.2     1  UNL1        0.2535
     15 N          13.1397   41.4267    6.6942 N.am    1  UNL1       -0.2643
     16 O          12.7544   43.3165    8.0072 O.2     1  UNL1       -0.2697
     17 H          13.6635   41.0906    5.9314 H       1  UNL1        0.1566
     18 C          14.8758   43.2388    6.9221 C.ar    1  UNL1        0.0876
     19 C          16.0814   42.7135    7.4477 C.ar    1  UNL1        0.1430
     20 C          17.3061   43.2967    7.0783 C.ar    1  UNL1        0.0371
     21 C          17.3447   44.3815    6.2020 C.ar    1  UNL1        0.0031
     22 C          16.1590   44.8979    5.6824 C.ar    1  UNL1        0.0003
     23 C          14.9357   44.3297    6.0403 C.ar    1  UNL1        0.0076
     24 C          17.1360   41.2967    9.1884 C.3     1  UNL1        0.2525
     25 O          16.0545   41.6223    8.3252 O.3     1  UNL1       -0.4713
     26 C           8.6163   39.6129    6.9196 C.3     1  UNL1        0.1292
     27 C           7.8157   40.7865    7.4593 C.3     1  UNL1        0.0264
     28 C           6.7033   42.9411    6.8812 C.3     1  UNL1        0.0001
     29 C           7.5714   41.8092    6.3645 C.3     1  UNL1        0.0021
@<TRIPOS>BOND
     1    28    29    1
     2    29    27    1
     3    27    26    1
     4    26    11    1
     5     1    15    1
     6     1     2   ar
     7    14    18    1
     8    19    25    1
     9    19    20   ar
    10    24    25    1
    11    21    22   ar
    12    23    18   ar
    13     3     4   ar
    14     5     6   ar
    15     7     8   ar
    16     9    13   ar
    17     9     4   ar
    18    10    11   ar
    19    10     2   ar
    20    11    12   ar
    21    15    14   am
    22     1    12   ar
    23    14    16    2
    24    18    19   ar
    25    20    21   ar
    26    22    23   ar
    27     2     3   ar
    28     4     5   ar
    29     6     7   ar
    30     8     9   ar
    31    10    13   ar
    32    15    17    1
@<TRIPOS>MOLECULE
MolPort-002-604-707 16974898 CSSS00160675836 MCULE-5119078341 PubChem-1989596 ZINC000016974898 ZINC16974898
 29 32 0 0 0
SMALL
GASTEIGER

@<TRIPOS>ATOM
      1 C          12.6950   40.2760    8.3969 C.ar    1  UNL1        0.1571
      2 C          11.3938   40.3299    7.9216 C.ar    1  UNL1        0.0689
      3 C          10.6371   41.3013    7.2739 C.ar    1  UNL1        0.0074
      4 C           9.2957   40.9846    6.9979 C.ar    1  UNL1        0.0179
      5 C           8.4765   41.9027    6.3374 C.ar    1  UNL1        0.0015
      6 C           7.1424   41.5811    6.0688 C.ar    1  UNL1        0.0001
      7 C           6.6215   40.3427    6.4599 C.ar    1  UNL1        0.0015
      8 C           7.4294   39.4141    7.1237 C.ar    1  UNL1        0.0192
      9 C           8.7647   39.7192    7.3983 C.ar    1  UNL1        0.0829
     10 C          10.8464   39.1388    8.2997 C.ar    1  UNL1        0.1621
     11 N          11.7493   38.4128    8.9763 N.ar    1  UNL1       -0.2329
     12 N          12.8836   39.1021    9.0491 N.ar    1  UNL1       -0.1527
     13 N           9.5518   38.8149    8.0549 N.ar    1  UNL1       -0.2268
     14 C          15.1063   41.1112    8.4811 C.2     1  UNL1        0.2535
     15 N          13.6926   41.3027    8.3387 N.am    1  UNL1       -0.2643
     16 O          15.5476   40.0450    8.9876 O.2     1  UNL1       -0.2697
     17 H          13.3788   42.2234    8.1870 H       1  UNL1        0.1566
     18 C          16.0348   42.1963    8.0832 C.ar    1  UNL1        0.0876
     19 C          15.7112   43.1484    7.0859 C.ar    1  UNL1        0.1430
     20 C          16.6424   44.1506    6.7618 C.ar    1  UNL1        0.0371
     21 C          17.8752   44.2165    7.4114 C.ar    1  UNL1        0.0031
     22 C          18.1939   43.2814    8.3946 C.ar    1  UNL1        0.0003
     23 C          17.2798   42.2806    8.7266 C.ar    1  UNL1        0.0076
     24 C          14.1479   43.9258    5.3250 C.3     1  UNL1        0.2525
     25 O          14.4750   43.0938    6.4302 O.3     1  UNL1       -0.4713
     26 C          11.5474   37.0916    9.5499 C.3     1  UNL1        0.1292
     27 C          12.8887   36.4327    9.8258 C.3     1  UNL1        0.0264
     28 C          14.6162   37.1928   11.4543 C.3     1  UNL1        0.0001
     29 C          13.2477   36.5573   11.2954 C.3     1  UNL1        0.0021
@<TRIPOS>BOND
     1    28    29    1
     2    29    27    1
     3    27    26    1
     4    26    11    1
     5     1    15    1
     6     1     2   ar
     7    14    18    1
     8    19    25    1
     9    19    20   ar
    10    24    25    1
    11    21    22   ar
    12    23    18   ar
    13     3     4   ar
    14     5     6   ar
    15     7     8   ar
    16     9    13   ar
    17     9     4   ar
    18    10    11   ar
    19    10     2   ar
    20    11    12   ar
    21    15    14   am
    22     1    12   ar
    23    14    16    2
    24    18    19   ar
    25    20    21   ar
    26    22    23   ar
    27     2     3   ar
    28     4     5   ar
    29     6     7   ar
    30     8     9   ar
    31    10    13   ar
    32    15    17    1
