@<TRIPOS>MOLECULE
MolPort-004-979-668 CSSS00160014156 MCULE-7658782327 PubChem-45159661
 32 35 0 0 0
SMALL
GASTEIGER

@<TRIPOS>ATOM
      1 C          14.0991   42.3993    7.2375 C.ar    1  UNL1        0.1514
      2 C          15.3277   41.9594    7.7406 C.ar    1  UNL1        0.0757
      3 C          15.0336   41.0709    8.7601 C.ar    1  UNL1        0.0505
      4 C          15.8302   40.3940    9.6775 C.ar    1  UNL1        0.0202
      5 C          15.1830   39.5966   10.6427 C.ar    1  UNL1        0.0642
      6 C          13.7726   39.5296   10.6561 C.ar    1  UNL1        0.1147
      7 C          13.6693   40.9868    8.8179 C.ar    1  UNL1        0.1453
      8 N          13.0312   40.2316    9.7482 N.ar    1  UNL1       -0.2254
      9 N          13.0854   41.7787    7.8999 N.ar    1  UNL1       -0.3040
     10 C          17.3851   43.4376    8.0480 C.2     1  UNL1        0.2266
     11 C          18.5578   44.0571    7.3787 C.3     1  UNL1        0.0949
     12 O          17.1191   43.7445    9.2395 O.2     1  UNL1       -0.2748
     13 N          16.6157   42.4552    7.3490 N.am    1  UNL1       -0.2825
     14 H          17.0054   42.0855    6.5239 H       1  UNL1        0.1549
     15 C          13.9201   43.3912    6.1543 C.2     1  UNL1        0.3587
     16 O          12.7588   43.7022    5.7723 O.2     1  UNL1       -0.2432
     17 C          15.3259   45.3664    5.7227 C.3     1  UNL1        0.2560
     18 O          15.0333   43.9871    5.5588 O.3     1  UNL1       -0.4403
     19 N          15.9281   38.8534   11.6116 N.pl3   1  UNL1       -0.3328
     20 H          16.4714   39.3523   12.2636 H       1  UNL1        0.1468
     21 C          15.9270   37.3967   11.6862 C.3     1  UNL1        0.0691
     22 C          14.8406   36.8139   10.7633 C.3     1  UNL1        0.0195
     23 C          15.3831   36.2380    9.4506 C.3     1  UNL1        0.0017
     24 C          16.5259   37.0947    8.9190 C.3     1  UNL1        0.0001
     25 C          17.7142   37.1100    9.8889 C.3     1  UNL1        0.0017
     26 C          17.3195   36.8547   11.3517 C.3     1  UNL1        0.0195
     27 C          11.6502   41.9851    7.7386 C.3     1  UNL1        0.1371
     28 C          10.9886   42.2071    9.0900 C.3     1  UNL1        0.1378
     29 C           9.5057   41.9468    8.9777 C.3     1  UNL1        0.0341
     30 C           8.8853   43.0298    9.8072 C.3     1  UNL1        0.0346
     31 C          10.0669   43.8153   10.3242 C.3     1  UNL1        0.1422
     32 O          11.1756   43.5313    9.5145 O.3     1  UNL1       -0.3543
@<TRIPOS>BOND
     1    17    18    1
     2    15    18    1
     3    15     1    1
     4     2    13    1
     5     2     3   ar
     6    11    10    1
     7     4     5   ar
     8     5    19    1
     9    21    19    1
    10    21    22    1
    11    22    23    1
    12    23    24    1
    13    24    25    1
    14    25    26    1
    15    26    21    1
    16     6     8   ar
    17     7     9   ar
    18     7     3   ar
    19    27     9    1
    20    28    27    1
    21    28    29    1
    22    28    32    1
    23    29    30    1
    24    30    31    1
    25    31    32    1
    26    13    10   am
    27     9     1   ar
    28    15    16    2
    29     1     2   ar
    30    10    12    2
    31     3     4   ar
    32     5     6   ar
    33     7     8   ar
    34    13    14    1
    35    19    20    1
@<TRIPOS>MOLECULE
MolPort-004-979-668 CSSS00160014156 MCULE-7658782327 PubChem-45159661
 32 35 0 0 0
SMALL
GASTEIGER

@<TRIPOS>ATOM
      1 C          14.1789   42.5309    7.0504 C.ar    1  UNL1        0.1514
      2 C          15.2681   41.9804    7.7334 C.ar    1  UNL1        0.0757
      3 C          14.7378   41.1333    8.6907 C.ar    1  UNL1        0.0505
      4 C          15.3161   40.3918    9.7155 C.ar    1  UNL1        0.0202
      5 C          14.4554   39.6685   10.5655 C.ar    1  UNL1        0.0642
      6 C          13.0597   39.7366   10.3622 C.ar    1  UNL1        0.1147
      7 C          13.3790   41.1802    8.5382 C.ar    1  UNL1        0.1453
      8 N          12.5368   40.4979    9.3554 N.ar    1  UNL1       -0.2254
      9 N          13.0211   42.0160    7.5462 N.ar    1  UNL1       -0.3040
     10 C          17.3048   43.4587    8.1565 C.2     1  UNL1        0.2266
     11 C          18.6370   43.8800    7.6520 C.3     1  UNL1        0.0949
     12 O          16.8037   44.0495    9.1487 O.2     1  UNL1       -0.2748
     13 N          16.6424   42.3474    7.5466 N.am    1  UNL1       -0.2825
     14 H          17.1783   41.7829    6.9438 H       1  UNL1        0.1549
     15 C          14.2636   43.5256    5.9583 C.2     1  UNL1        0.3587
     16 O          13.2080   43.9700    5.4296 O.2     1  UNL1       -0.2432
     17 C          15.8828   45.3440    5.5904 C.3     1  UNL1        0.2560
     18 O          15.5087   43.9767    5.5163 O.3     1  UNL1       -0.4403
     19 N          14.9688   38.8664   11.6329 N.pl3   1  UNL1       -0.3328
     20 H          15.1602   39.3044   12.4936 H       1  UNL1        0.1468
     21 C          15.2242   37.4352   11.5157 C.3     1  UNL1        0.0691
     22 C          13.8966   36.6562   11.4691 C.3     1  UNL1        0.0195
     23 C          13.5019   36.1835   10.0656 C.3     1  UNL1        0.0017
     24 C          13.8638   37.2339    9.0225 C.3     1  UNL1        0.0001
     25 C          15.3779   37.4744    8.9698 C.3     1  UNL1        0.0017
     26 C          16.0986   37.1585   10.2895 C.3     1  UNL1        0.0195
     27 C          11.6539   42.3569    7.1679 C.3     1  UNL1        0.1371
     28 C          10.8904   41.1101    6.7487 C.3     1  UNL1        0.1378
     29 C          11.3757   40.6493    5.3953 C.3     1  UNL1        0.0341
     30 C          10.1231   40.2340    4.6849 C.3     1  UNL1        0.0346
     31 C           9.0293   40.4914    5.6939 C.3     1  UNL1        0.1422
     32 O           9.5175   41.3848    6.6576 O.3     1  UNL1       -0.3543
@<TRIPOS>BOND
     1    17    18    1
     2    15    18    1
     3    15     1    1
     4     2    13    1
     5     2     3   ar
     6    11    10    1
     7     4     5   ar
     8     5    19    1
     9    21    19    1
    10    21    22    1
    11    22    23    1
    12    23    24    1
    13    24    25    1
    14    25    26    1
    15    26    21    1
    16     6     8   ar
    17     7     9   ar
    18     7     3   ar
    19    27     9    1
    20    28    27    1
    21    28    29    1
    22    28    32    1
    23    29    30    1
    24    30    31    1
    25    31    32    1
    26    13    10   am
    27     9     1   ar
    28    15    16    2
    29     1     2   ar
    30    10    12    2
    31     3     4   ar
    32     5     6   ar
    33     7     8   ar
    34    13    14    1
    35    19    20    1
@<TRIPOS>MOLECULE
MolPort-004-979-668 CSSS00160014156 MCULE-7658782327 PubChem-45159661
 32 35 0 0 0
SMALL
GASTEIGER

@<TRIPOS>ATOM
      1 C           6.0341   41.8909    9.9097 C.ar    1  UNL1        0.1514
      2 C           6.2733   42.3708    8.6180 C.ar    1  UNL1        0.0757
      3 C           7.5852   42.0458    8.3204 C.ar    1  UNL1        0.0505
      4 C           8.4051   42.3409    7.2362 C.ar    1  UNL1        0.0202
      5 C           9.7408   41.8939    7.2856 C.ar    1  UNL1        0.0642
      6 C          10.1968   41.1915    8.4226 C.ar    1  UNL1        0.1147
      7 C           8.0729   41.3730    9.4071 C.ar    1  UNL1        0.1453
      8 N           9.3596   40.9457    9.4741 N.ar    1  UNL1       -0.2254
      9 N           7.1471   41.2634   10.3775 N.ar    1  UNL1       -0.3040
     10 C           5.1943   44.5775    7.9262 C.2     1  UNL1        0.2266
     11 C           4.0241   45.2143    7.2691 C.3     1  UNL1        0.0949
     12 O           6.0496   45.2997    8.5020 O.2     1  UNL1       -0.2748
     13 N           5.3632   43.1599    7.8389 N.am    1  UNL1       -0.2825
     14 H           4.8039   42.6821    7.1845 H       1  UNL1        0.1549
     15 C           4.7689   42.0426   10.6616 C.2     1  UNL1        0.3587
     16 O           3.9134   42.8912   10.2881 O.2     1  UNL1       -0.2432
     17 C           3.8201   40.0128   11.6832 C.3     1  UNL1        0.2560
     18 O           4.5181   41.2450   11.7797 O.3     1  UNL1       -0.4403
     19 N          10.6457   42.1392    6.2052 N.pl3   1  UNL1       -0.3328
     20 H          10.4266   42.8577    5.5688 H       1  UNL1        0.1468
     21 C          11.8751   41.3831    5.9950 C.3     1  UNL1        0.0691
     22 C          12.9139   42.2450    5.2537 C.3     1  UNL1        0.0195
     23 C          14.0161   42.8063    6.1589 C.3     1  UNL1        0.0017
     24 C          13.4465   43.2080    7.5141 C.3     1  UNL1        0.0001
     25 C          12.8703   41.9987    8.2616 C.3     1  UNL1        0.0017
     26 C          12.4060   40.8648    7.3345 C.3     1  UNL1        0.0195
     27 C           7.3562   40.6724   11.6948 C.3     1  UNL1        0.1371
     28 C           8.3669   41.4853   12.4891 C.3     1  UNL1        0.1378
     29 C           9.7646   41.1436   12.0317 C.3     1  UNL1        0.0341
     30 C          10.5584   41.0952   13.3019 C.3     1  UNL1        0.0346
     31 C           9.5468   41.4152   14.3765 C.3     1  UNL1        0.1422
     32 O           8.2639   41.1917   13.8573 O.3     1  UNL1       -0.3543
@<TRIPOS>BOND
     1    17    18    1
     2    15    18    1
     3    15     1    1
     4     2    13    1
     5     2     3   ar
     6    11    10    1
     7     4     5   ar
     8     5    19    1
     9    21    19    1
    10    21    22    1
    11    22    23    1
    12    23    24    1
    13    24    25    1
    14    25    26    1
    15    26    21    1
    16     6     8   ar
    17     7     9   ar
    18     7     3   ar
    19    27     9    1
    20    28    27    1
    21    28    29    1
    22    28    32    1
    23    29    30    1
    24    30    31    1
    25    31    32    1
    26    13    10   am
    27     9     1   ar
    28    15    16    2
    29     1     2   ar
    30    10    12    2
    31     3     4   ar
    32     5     6   ar
    33     7     8   ar
    34    13    14    1
    35    19    20    1
@<TRIPOS>MOLECULE
MolPort-004-979-668 CSSS00160014156 MCULE-7658782327 PubChem-45159661
 32 35 0 0 0
SMALL
GASTEIGER

@<TRIPOS>ATOM
      1 C          14.2065   40.7441    8.8798 C.ar    1  UNL1        0.1514
      2 C          13.7605   41.5437    7.8226 C.ar    1  UNL1        0.0757
      3 C          12.3784   41.4769    7.8421 C.ar    1  UNL1        0.0505
      4 C          11.3997   41.9796    6.9910 C.ar    1  UNL1        0.0202
      5 C          10.0568   41.6646    7.2803 C.ar    1  UNL1        0.0642
      6 C           9.7589   40.8481    8.3931 C.ar    1  UNL1        0.1147
      7 C          12.0448   40.6792    8.9022 C.ar    1  UNL1        0.1453
      8 N          10.7570   40.3582    9.1873 N.ar    1  UNL1       -0.2254
      9 N          13.1375   40.2307    9.5470 N.ar    1  UNL1       -0.3040
     10 C          14.4224   43.4997    6.3231 C.2     1  UNL1        0.2266
     11 C          15.1891   43.9146    5.1203 C.3     1  UNL1        0.0949
     12 O          13.6727   44.3325    6.8967 O.2     1  UNL1       -0.2748
     13 N          14.5976   42.1803    6.8468 N.am    1  UNL1       -0.2825
     14 H          15.3623   41.6618    6.5068 H       1  UNL1        0.1549
     15 C          15.6223   40.4863    9.2237 C.2     1  UNL1        0.3587
     16 O          16.5369   41.1447    8.6568 O.2     1  UNL1       -0.2432
     17 C          17.2770   39.3346   10.6377 C.3     1  UNL1        0.2560
     18 O          15.9470   39.5202   10.1778 O.3     1  UNL1       -0.4403
     19 N           8.9878   42.1556    6.4664 N.pl3   1  UNL1       -0.3328
     20 H           9.1805   42.8876    5.8369 H       1  UNL1        0.1468
     21 C           7.6278   41.6310    6.5183 C.3     1  UNL1        0.0691
     22 C           7.2482   41.2687    7.9661 C.3     1  UNL1        0.0195
     23 C           6.3340   42.2948    8.6446 C.3     1  UNL1        0.0017
     24 C           6.7196   43.7116    8.2368 C.3     1  UNL1        0.0001
     25 C           6.5421   43.9296    6.7287 C.3     1  UNL1        0.0017
     26 C           6.6542   42.6394    5.9019 C.3     1  UNL1        0.0195
     27 C          13.1445   39.3013   10.6715 C.3     1  UNL1        0.1371
     28 C          13.1553   37.8639   10.1747 C.3     1  UNL1        0.1378
     29 C          11.7437   37.3295   10.1373 C.3     1  UNL1        0.0341
     30 C          11.8764   35.9240   10.6402 C.3     1  UNL1        0.0346
     31 C          13.3529   35.7748   10.9203 C.3     1  UNL1        0.1422
     32 O          13.9131   37.0548   11.0347 O.3     1  UNL1       -0.3543
@<TRIPOS>BOND
     1    17    18    1
     2    15    18    1
     3    15     1    1
     4     2    13    1
     5     2     3   ar
     6    11    10    1
     7     4     5   ar
     8     5    19    1
     9    21    19    1
    10    21    22    1
    11    22    23    1
    12    23    24    1
    13    24    25    1
    14    25    26    1
    15    26    21    1
    16     6     8   ar
    17     7     9   ar
    18     7     3   ar
    19    27     9    1
    20    28    27    1
    21    28    29    1
    22    28    32    1
    23    29    30    1
    24    30    31    1
    25    31    32    1
    26    13    10   am
    27     9     1   ar
    28    15    16    2
    29     1     2   ar
    30    10    12    2
    31     3     4   ar
    32     5     6   ar
    33     7     8   ar
    34    13    14    1
    35    19    20    1
@<TRIPOS>MOLECULE
MolPort-004-979-668 CSSS00160014156 MCULE-7658782327 PubChem-45159661
 32 35 0 0 0
SMALL
GASTEIGER

@<TRIPOS>ATOM
      1 C          13.9575   42.0728    7.6850 C.ar    1  UNL1        0.1514
      2 C          15.2995   41.7433    7.9004 C.ar    1  UNL1        0.0757
      3 C          15.3075   40.7788    8.8928 C.ar    1  UNL1        0.0505
      4 C          16.3367   40.1467    9.5826 C.ar    1  UNL1        0.0202
      5 C          15.9810   39.2373   10.5989 C.ar    1  UNL1        0.0642
      6 C          14.6164   39.0184   10.8888 C.ar    1  UNL1        0.1147
      7 C          13.9987   40.5455    9.2157 C.ar    1  UNL1        0.1453
      8 N          13.6407   39.6808   10.1990 N.ar    1  UNL1       -0.2254
      9 N          13.1657   41.3147    8.4910 N.ar    1  UNL1       -0.3040
     10 C          17.2744   43.3594    7.9227 C.2     1  UNL1        0.2266
     11 C          18.2163   44.1521    7.0913 C.3     1  UNL1        0.0949
     12 O          17.2759   43.5089    9.1726 O.2     1  UNL1       -0.2748
     13 N          16.4261   42.3936    7.2955 N.am    1  UNL1       -0.2825
     14 H          16.6344   42.1532    6.3638 H       1  UNL1        0.1549
     15 C          13.4658   43.0924    6.7321 C.2     1  UNL1        0.3587
     16 O          12.5395   42.8042    5.9256 O.2     1  UNL1       -0.2432
     17 C          14.7532   44.8720    5.6188 C.3     1  UNL1        0.2560
     18 O          14.0210   44.3733    6.7279 O.3     1  UNL1       -0.4403
     19 N          16.9769   38.5314   11.3446 N.pl3   1  UNL1       -0.3328
     20 H          17.5140   39.0358   11.9975 H       1  UNL1        0.1468
     21 C          17.2400   37.1050   11.1905 C.3     1  UNL1        0.0691
     22 C          16.8150   36.6303    9.7885 C.3     1  UNL1        0.0195
     23 C          17.9845   36.4319    8.8180 C.3     1  UNL1        0.0017
     24 C          19.0432   37.5085    9.0242 C.3     1  UNL1        0.0001
     25 C          19.6524   37.4348   10.4301 C.3     1  UNL1        0.0017
     26 C          18.7154   36.8114   11.4762 C.3     1  UNL1        0.0195
     27 C          11.7150   41.3732    8.6344 C.3     1  UNL1        0.1371
     28 C          11.0476   40.3610    7.7162 C.3     1  UNL1        0.1378
     29 C           9.7443   40.9243    7.2024 C.3     1  UNL1        0.0341
     30 C           8.8059   39.7566    7.2421 C.3     1  UNL1        0.0346
     31 C           9.6535   38.6254    7.7735 C.3     1  UNL1        0.1422
     32 O          10.7738   39.1744    8.4130 O.3     1  UNL1       -0.3543
@<TRIPOS>BOND
     1    17    18    1
     2    15    18    1
     3    15     1    1
     4     2    13    1
     5     2     3   ar
     6    11    10    1
     7     4     5   ar
     8     5    19    1
     9    21    19    1
    10    21    22    1
    11    22    23    1
    12    23    24    1
    13    24    25    1
    14    25    26    1
    15    26    21    1
    16     6     8   ar
    17     7     9   ar
    18     7     3   ar
    19    27     9    1
    20    28    27    1
    21    28    29    1
    22    28    32    1
    23    29    30    1
    24    30    31    1
    25    31    32    1
    26    13    10   am
    27     9     1   ar
    28    15    16    2
    29     1     2   ar
    30    10    12    2
    31     3     4   ar
    32     5     6   ar
    33     7     8   ar
    34    13    14    1
    35    19    20    1
@<TRIPOS>MOLECULE
MolPort-004-979-668 CSSS00160014156 MCULE-7658782327 PubChem-45159661
 32 35 0 0 0
SMALL
GASTEIGER

@<TRIPOS>ATOM
      1 C          11.7484   41.0977    7.8624 C.ar    1  UNL1        0.1514
      2 C          13.0920   41.2086    7.4904 C.ar    1  UNL1        0.0757
      3 C          13.8276   40.6565    8.5244 C.ar    1  UNL1        0.0505
      4 C          15.1948   40.5675    8.7639 C.ar    1  UNL1        0.0202
      5 C          15.6097   39.9809    9.9764 C.ar    1  UNL1        0.0642
      6 C          14.6393   39.5299   10.8977 C.ar    1  UNL1        0.1147
      7 C          12.9222   40.2173    9.4513 C.ar    1  UNL1        0.1453
      8 N          13.3062   39.6601   10.6281 N.ar    1  UNL1       -0.2254
      9 N          11.6578   40.4695    9.0661 N.ar    1  UNL1       -0.3040
     10 C          14.3128   43.1189    6.3187 C.2     1  UNL1        0.2266
     11 C          14.5036   43.8455    5.0372 C.3     1  UNL1        0.0949
     12 O          14.8440   43.5661    7.3687 O.2     1  UNL1       -0.2748
     13 N          13.5823   41.8892    6.3266 N.am    1  UNL1       -0.2825
     14 H          13.3993   41.4719    5.4539 H       1  UNL1        0.1549
     15 C          10.5959   41.5901    7.0759 C.2     1  UNL1        0.3587
     16 O          10.7853   42.1157    5.9449 O.2     1  UNL1       -0.2432
     17 C           8.3486   42.5165    7.4695 C.3     1  UNL1        0.2560
     18 O           9.2999   41.4689    7.5806 O.3     1  UNL1       -0.4403
     19 N          16.9969   39.8344   10.2932 N.pl3   1  UNL1       -0.3328
     20 H          17.6237   40.5199    9.9668 H       1  UNL1        0.1468
     21 C          17.5335   38.7250   11.0733 C.3     1  UNL1        0.0691
     22 C          16.9907   37.3851   10.5427 C.3     1  UNL1        0.0195
     23 C          17.9938   36.6023    9.6883 C.3     1  UNL1        0.0017
     24 C          18.8127   37.5481    8.8181 C.3     1  UNL1        0.0001
     25 C          19.6523   38.5090    9.6695 C.3     1  UNL1        0.0017
     26 C          19.0641   38.7713   11.0645 C.3     1  UNL1        0.0195
     27 C          10.4566   40.2014    9.8493 C.3     1  UNL1        0.1371
     28 C          10.2047   41.3268   10.8408 C.3     1  UNL1        0.1378
     29 C           8.7246   41.4367   11.1183 C.3     1  UNL1        0.0341
     30 C           8.4749   42.9136   11.1655 C.3     1  UNL1        0.0346
     31 C           9.8340   43.5215   10.9126 C.3     1  UNL1        0.1422
     32 O          10.6495   42.5497   10.3160 O.3     1  UNL1       -0.3543
@<TRIPOS>BOND
     1    17    18    1
     2    15    18    1
     3    15     1    1
     4     2    13    1
     5     2     3   ar
     6    11    10    1
     7     4     5   ar
     8     5    19    1
     9    21    19    1
    10    21    22    1
    11    22    23    1
    12    23    24    1
    13    24    25    1
    14    25    26    1
    15    26    21    1
    16     6     8   ar
    17     7     9   ar
    18     7     3   ar
    19    27     9    1
    20    28    27    1
    21    28    29    1
    22    28    32    1
    23    29    30    1
    24    30    31    1
    25    31    32    1
    26    13    10   am
    27     9     1   ar
    28    15    16    2
    29     1     2   ar
    30    10    12    2
    31     3     4   ar
    32     5     6   ar
    33     7     8   ar
    34    13    14    1
    35    19    20    1
@<TRIPOS>MOLECULE
MolPort-004-979-668 CSSS00160014156 MCULE-7658782327 PubChem-45159661
 32 35 0 0 0
SMALL
GASTEIGER

@<TRIPOS>ATOM
      1 C          11.1745   40.5436    9.9169 C.ar    1  UNL1        0.1514
      2 C          10.0800   40.8556   10.7297 C.ar    1  UNL1        0.0757
      3 C           9.1562   41.4829    9.9123 C.ar    1  UNL1        0.0505
      4 C           7.9337   42.0942   10.1698 C.ar    1  UNL1        0.0202
      5 C           7.2663   42.7032    9.0881 C.ar    1  UNL1        0.0642
      6 C           7.8611   42.6884    7.8076 C.ar    1  UNL1        0.1147
      7 C           9.7012   41.5034    8.6577 C.ar    1  UNL1        0.1453
      8 N           9.0757   42.0952    7.6083 N.ar    1  UNL1       -0.2254
      9 N          10.9202   40.9338    8.6384 N.ar    1  UNL1       -0.3040
     10 C           8.9458   41.0859   13.0042 C.2     1  UNL1        0.2266
     11 C           9.1452   41.0888   14.4762 C.3     1  UNL1        0.0949
     12 O           7.8201   41.3925   12.5316 O.2     1  UNL1       -0.2748
     13 N          10.0173   40.6731   12.1513 N.am    1  UNL1       -0.2825
     14 H          10.7813   40.2227   12.5787 H       1  UNL1        0.1549
     15 C          12.4237   39.8934   10.3707 C.2     1  UNL1        0.3587
     16 O          13.4375   40.5958   10.6361 O.2     1  UNL1       -0.2432
     17 C          12.7619   37.6497    9.4140 C.3     1  UNL1        0.2560
     18 O          12.4805   38.5055   10.5110 O.3     1  UNL1       -0.4403
     19 N           5.9964   43.3383    9.2626 N.pl3   1  UNL1       -0.3328
     20 H           5.9755   44.2306    9.6779 H       1  UNL1        0.1468
     21 C           4.7309   42.7360    8.8587 C.3     1  UNL1        0.0691
     22 C           4.8611   41.2025    8.8031 C.3     1  UNL1        0.0195
     23 C           4.2365   40.4814   10.0027 C.3     1  UNL1        0.0017
     24 C           4.4702   41.2699   11.2857 C.3     1  UNL1        0.0001
     25 C           3.7946   42.6460   11.2298 C.3     1  UNL1        0.0017
     26 C           3.6125   43.1860    9.8029 C.3     1  UNL1        0.0195
     27 C          11.8083   40.8553    7.4836 C.3     1  UNL1        0.1371
     28 C          12.7957   42.0120    7.4911 C.3     1  UNL1        0.1378
     29 C          12.7197   42.7524    6.1775 C.3     1  UNL1        0.0341
     30 C          14.1496   43.0657    5.8565 C.3     1  UNL1        0.0346
     31 C          14.9204   42.4790    7.0150 C.3     1  UNL1        0.1422
     32 O          14.1052   41.5362    7.6569 O.3     1  UNL1       -0.3543
@<TRIPOS>BOND
     1    17    18    1
     2    15    18    1
     3    15     1    1
     4     2    13    1
     5     2     3   ar
     6    11    10    1
     7     4     5   ar
     8     5    19    1
     9    21    19    1
    10    21    22    1
    11    22    23    1
    12    23    24    1
    13    24    25    1
    14    25    26    1
    15    26    21    1
    16     6     8   ar
    17     7     9   ar
    18     7     3   ar
    19    27     9    1
    20    28    27    1
    21    28    29    1
    22    28    32    1
    23    29    30    1
    24    30    31    1
    25    31    32    1
    26    13    10   am
    27     9     1   ar
    28    15    16    2
    29     1     2   ar
    30    10    12    2
    31     3     4   ar
    32     5     6   ar
    33     7     8   ar
    34    13    14    1
    35    19    20    1
@<TRIPOS>MOLECULE
MolPort-004-979-668 CSSS00160014156 MCULE-7658782327 PubChem-45159661
 32 35 0 0 0
SMALL
GASTEIGER

@<TRIPOS>ATOM
      1 C           9.6220   39.8717    7.2634 C.ar    1  UNL1        0.1514
      2 C          10.7300   39.7868    6.4143 C.ar    1  UNL1        0.0757
      3 C          11.6253   40.7489    6.8476 C.ar    1  UNL1        0.0505
      4 C          12.8442   41.1940    6.3466 C.ar    1  UNL1        0.0202
      5 C          13.4775   42.2593    7.0178 C.ar    1  UNL1        0.0642
      6 C          12.8537   42.8397    8.1438 C.ar    1  UNL1        0.1147
      7 C          11.0515   41.3494    7.9347 C.ar    1  UNL1        0.1453
      8 N          11.6439   42.3832    8.5851 N.ar    1  UNL1       -0.2254
      9 N           9.8411   40.8280    8.2063 N.ar    1  UNL1       -0.3040
     10 C           9.9626   38.9947    4.1129 C.2     1  UNL1        0.2266
     11 C          10.0084   37.8897    3.1211 C.3     1  UNL1        0.0949
     12 O           9.2041   39.9784    3.9088 O.2     1  UNL1       -0.2748
     13 N          10.8280   38.9530    5.2510 N.am    1  UNL1       -0.2825
     14 H          11.5573   38.2919    5.2345 H       1  UNL1        0.1549
     15 C           8.3934   39.0542    7.1566 C.2     1  UNL1        0.3587
     16 O           8.4806   37.8098    6.9693 O.2     1  UNL1       -0.2432
     17 C           6.2734   39.8040    6.1529 C.3     1  UNL1        0.2560
     18 O           7.1389   39.6566    7.2683 O.3     1  UNL1       -0.4403
     19 N          14.7413   42.7658    6.5792 N.pl3   1  UNL1       -0.3328
     20 H          15.1782   42.3271    5.8137 H       1  UNL1        0.1468
     21 C          15.4181   43.8965    7.2042 C.3     1  UNL1        0.0691
     22 C          16.3972   43.4037    8.2859 C.3     1  UNL1        0.0195
     23 C          17.8663   43.4203    7.8492 C.3     1  UNL1        0.0017
     24 C          17.9977   43.0098    6.3875 C.3     1  UNL1        0.0001
     25 C          17.2771   43.9967    5.4603 C.3     1  UNL1        0.0017
     26 C          16.1168   44.7432    6.1366 C.3     1  UNL1        0.0195
     27 C           8.9281   41.2857    9.2481 C.3     1  UNL1        0.1371
     28 C           8.2423   42.5760    8.8265 C.3     1  UNL1        0.1378
     29 C           6.8261   42.5922    9.3496 C.3     1  UNL1        0.0341
     30 C           6.0308   43.1737    8.2203 C.3     1  UNL1        0.0346
     31 C           7.0609   43.4417    7.1489 C.3     1  UNL1        0.1422
     32 O           8.1994   42.6726    7.4274 O.3     1  UNL1       -0.3543
@<TRIPOS>BOND
     1    17    18    1
     2    15    18    1
     3    15     1    1
     4     2    13    1
     5     2     3   ar
     6    11    10    1
     7     4     5   ar
     8     5    19    1
     9    21    19    1
    10    21    22    1
    11    22    23    1
    12    23    24    1
    13    24    25    1
    14    25    26    1
    15    26    21    1
    16     6     8   ar
    17     7     9   ar
    18     7     3   ar
    19    27     9    1
    20    28    27    1
    21    28    29    1
    22    28    32    1
    23    29    30    1
    24    30    31    1
    25    31    32    1
    26    13    10   am
    27     9     1   ar
    28    15    16    2
    29     1     2   ar
    30    10    12    2
    31     3     4   ar
    32     5     6   ar
    33     7     8   ar
    34    13    14    1
    35    19    20    1
@<TRIPOS>MOLECULE
MolPort-004-979-668 CSSS00160014156 MCULE-7658782327 PubChem-45159661
 32 35 0 0 0
SMALL
GASTEIGER

@<TRIPOS>ATOM
      1 C          10.0776   40.9113    9.0784 C.ar    1  UNL1        0.1514
      2 C           9.1696   41.0552   10.1323 C.ar    1  UNL1        0.0757
      3 C           8.0275   41.6145    9.5865 C.ar    1  UNL1        0.0505
      4 C           6.8401   42.0692   10.1506 C.ar    1  UNL1        0.0202
      5 C           5.8887   42.6529    9.2902 C.ar    1  UNL1        0.0642
      6 C           6.1775   42.7711    7.9130 C.ar    1  UNL1        0.1147
      7 C           8.2703   41.7607    8.2481 C.ar    1  UNL1        0.1453
      8 N           7.3684   42.3305    7.4087 N.ar    1  UNL1       -0.2254
      9 N           9.5038   41.3349    7.9197 N.ar    1  UNL1       -0.3040
     10 C           8.7268   41.3243   12.6311 C.2     1  UNL1        0.2266
     11 C           9.3000   41.1990   13.9958 C.3     1  UNL1        0.0949
     12 O           7.5900   41.8443   12.4827 O.2     1  UNL1       -0.2748
     13 N           9.4479   40.7944   11.5153 N.am    1  UNL1       -0.2825
     14 H          10.2040   40.1962   11.7145 H       1  UNL1        0.1549
     15 C          11.4553   40.3848    9.1976 C.2     1  UNL1        0.3587
     16 O          12.3467   41.0778    9.7601 O.2     1  UNL1       -0.2432
     17 C          11.0721   37.9541    9.1038 C.3     1  UNL1        0.2560
     18 O          11.7686   39.1210    8.6937 O.3     1  UNL1       -0.4403
     19 N           4.6344   43.1300    9.7857 N.pl3   1  UNL1       -0.3328
     20 H           4.6153   44.0032   10.2401 H       1  UNL1        0.1468
     21 C           3.3824   42.3935    9.6545 C.3     1  UNL1        0.0691
     22 C           3.6599   40.9308    9.2606 C.3     1  UNL1        0.0195
     23 C           3.5307   39.9388   10.4218 C.3     1  UNL1        0.0017
     24 C           4.0666   40.5478   11.7118 C.3     1  UNL1        0.0001
     25 C           3.2576   41.7828   12.1280 C.3     1  UNL1        0.0017
     26 C           2.5755   42.4982   10.9517 C.3     1  UNL1        0.0195
     27 C          10.1114   41.4167    6.5959 C.3     1  UNL1        0.1371
     28 C           9.9113   40.1143    5.8363 C.3     1  UNL1        0.1378
     29 C          11.2271   39.6610    5.2510 C.3     1  UNL1        0.0341
     30 C          10.8602   39.1502    3.8907 C.3     1  UNL1        0.0346
     31 C           9.3657   39.3536    3.8157 C.3     1  UNL1        0.1422
     32 O           8.9980   40.2955    4.7867 O.3     1  UNL1       -0.3543
@<TRIPOS>BOND
     1    17    18    1
     2    15    18    1
     3    15     1    1
     4     2    13    1
     5     2     3   ar
     6    11    10    1
     7     4     5   ar
     8     5    19    1
     9    21    19    1
    10    21    22    1
    11    22    23    1
    12    23    24    1
    13    24    25    1
    14    25    26    1
    15    26    21    1
    16     6     8   ar
    17     7     9   ar
    18     7     3   ar
    19    27     9    1
    20    28    27    1
    21    28    29    1
    22    28    32    1
    23    29    30    1
    24    30    31    1
    25    31    32    1
    26    13    10   am
    27     9     1   ar
    28    15    16    2
    29     1     2   ar
    30    10    12    2
    31     3     4   ar
    32     5     6   ar
    33     7     8   ar
    34    13    14    1
    35    19    20    1
@<TRIPOS>MOLECULE
MolPort-004-979-668 CSSS00160014156 MCULE-7658782327 PubChem-45159661
 32 35 0 0 0
SMALL
GASTEIGER

@<TRIPOS>ATOM
      1 C          14.6757   41.2930    8.3640 C.ar    1  UNL1        0.1514
      2 C          13.7618   42.2596    7.9321 C.ar    1  UNL1        0.0757
      3 C          12.5213   41.6463    7.9286 C.ar    1  UNL1        0.0505
      4 C          11.2637   42.0688    7.5105 C.ar    1  UNL1        0.0202
      5 C          10.2024   41.1452    7.5938 C.ar    1  UNL1        0.0642
      6 C          10.4528   39.8404    8.0721 C.ar    1  UNL1        0.1147
      7 C          12.7206   40.3682    8.3739 C.ar    1  UNL1        0.1453
      8 N          11.7108   39.4641    8.4496 N.ar    1  UNL1       -0.2254
      9 N          14.0174   40.1367    8.6487 N.ar    1  UNL1       -0.3040
     10 C          14.3518   43.9380    6.1025 C.2     1  UNL1        0.2266
     11 C          14.9614   45.2595    5.8047 C.3     1  UNL1        0.0949
     12 O          14.0177   43.1825    5.1527 O.2     1  UNL1       -0.2748
     13 N          14.0961   43.5730    7.4616 N.am    1  UNL1       -0.2825
     14 H          14.1548   44.2882    8.1356 H       1  UNL1        0.1549
     15 C          16.1369   41.4881    8.4900 C.2     1  UNL1        0.3587
     16 O          16.8083   40.7371    9.2494 O.2     1  UNL1       -0.2432
     17 C          17.6610   43.4193    8.3816 C.3     1  UNL1        0.2560
     18 O          16.7742   42.4975    7.7661 O.3     1  UNL1       -0.4403
     19 N           8.8744   41.5039    7.2014 N.pl3   1  UNL1       -0.3328
     20 H           8.3880   40.8978    6.5969 H       1  UNL1        0.1468
     21 C           8.2015   42.7184    7.6480 C.3     1  UNL1        0.0691
     22 C           6.7488   42.7446    7.1374 C.3     1  UNL1        0.0195
     23 C           5.7082   42.3855    8.2039 C.3     1  UNL1        0.0017
     24 C           6.2293   41.2789    9.1128 C.3     1  UNL1        0.0001
     25 C           7.4774   41.7269    9.8839 C.3     1  UNL1        0.0017
     26 C           8.2788   42.8286    9.1733 C.3     1  UNL1        0.0195
     27 C          14.5868   38.8614    9.0704 C.3     1  UNL1        0.1371
     28 C          13.5000   37.9459    9.6127 C.3     1  UNL1        0.1378
     29 C          13.6599   37.7984   11.1068 C.3     1  UNL1        0.0341
     30 C          13.3764   36.3485   11.3587 C.3     1  UNL1        0.0346
     31 C          13.0771   35.7918    9.9871 C.3     1  UNL1        0.1422
     32 O          13.5957   36.6738    9.0287 O.3     1  UNL1       -0.3543
@<TRIPOS>BOND
     1    17    18    1
     2    15    18    1
     3    15     1    1
     4     2    13    1
     5     2     3   ar
     6    11    10    1
     7     4     5   ar
     8     5    19    1
     9    21    19    1
    10    21    22    1
    11    22    23    1
    12    23    24    1
    13    24    25    1
    14    25    26    1
    15    26    21    1
    16     6     8   ar
    17     7     9   ar
    18     7     3   ar
    19    27     9    1
    20    28    27    1
    21    28    29    1
    22    28    32    1
    23    29    30    1
    24    30    31    1
    25    31    32    1
    26    13    10   am
    27     9     1   ar
    28    15    16    2
    29     1     2   ar
    30    10    12    2
    31     3     4   ar
    32     5     6   ar
    33     7     8   ar
    34    13    14    1
    35    19    20    1
