@<TRIPOS>MOLECULE
MolPort-001-657-850 8782554 CSSS00160412166 PubChem-19584611 ZINC000008782554 ZINC08782554
 25 26 0 0 0
SMALL
GASTEIGER

@<TRIPOS>ATOM
      1 C          12.4569   40.6426    8.0717 C.2     1  UNL1        0.2497
      2 O          12.7582   41.3302    9.0839 O.2     1  UNL1       -0.2698
      3 N          12.7587   41.1157    6.7547 N.am    1  UNL1       -0.2779
      4 H          12.4550   40.5658    5.9967 H       1  UNL1        0.1553
      5 C          14.7327   42.6265    6.8920 C.ar    1  UNL1        0.1141
      6 C          13.4656   42.3225    6.4491 C.ar    1  UNL1        0.0908
      7 C          13.0218   43.3814    5.6777 C.ar    1  UNL1        0.1364
      8 N          15.0140   43.8409    6.3868 N.ar    1  UNL1       -0.2187
      9 N          14.0073   44.2998    5.6605 N.ar    1  UNL1       -0.1641
     10 C          16.2586   44.5645    6.5808 C.3     1  UNL1        0.2733
     11 O          16.6876   44.4228    7.9011 O.3     1  UNL1       -0.3311
     12 C          17.9106   42.4074    8.1965 C.3     1  UNL1        0.0347
     13 C          17.9620   43.8673    7.7975 C.3     1  UNL1        0.1446
     14 C          11.7134   39.3801    8.2101 C.2     1  UNL1        0.0580
     15 C          10.3871   39.2243    8.3209 C.2     1  UNL1        0.0047
     16 C           9.3647   40.2739    8.4767 C.ar    1  UNL1        0.0003
     17 C           8.4125   40.4316    7.4646 C.ar    1  UNL1        0.0031
     18 C           7.3854   41.3700    7.6004 C.ar    1  UNL1        0.0371
     19 C           7.2890   42.1503    8.7637 C.ar    1  UNL1        0.1443
     20 C           8.2243   41.9725    9.7876 C.ar    1  UNL1        0.0371
     21 C           9.2503   41.0335    9.6500 C.ar    1  UNL1        0.0031
     22 O           6.2782   43.1026    8.9280 O.3     1  UNL1       -0.4236
     23 C           6.3745   44.4312    8.4285 C.3     1  UNL1        0.5087
     24 F           6.0419   44.4418    7.0877 F       1  UNL1       -0.1550
     25 F           7.6678   44.8964    8.5810 F       1  UNL1       -0.1550
@<TRIPOS>BOND
     1    12    13    1
     2    13    11    1
     3    10    11    1
     4    10     8    1
     5     6     3    1
     6     6     7   ar
     7     1    14    1
     8    15    16    1
     9    17    18   ar
    10    19    22    1
    11    19    20   ar
    12    23    22    1
    13    23    24    1
    14    23    25    1
    15    21    16   ar
    16     8     5   ar
    17     8     9   ar
    18     3     1   am
    19     5     6   ar
    20     1     2    2
    21    14    15    2
    22    16    17   ar
    23    18    19   ar
    24    20    21   ar
    25     7     9   ar
    26     3     4    1
@<TRIPOS>MOLECULE
MolPort-001-657-850 8782554 CSSS00160412166 PubChem-19584611 ZINC000008782554 ZINC08782554
 25 26 0 0 0
SMALL
GASTEIGER

@<TRIPOS>ATOM
      1 C          11.8222   41.2366    8.1847 C.2     1  UNL1        0.2497
      2 O          11.9127   42.1814    9.0137 O.2     1  UNL1       -0.2698
      3 N          12.5097   41.3006    6.9307 N.am    1  UNL1       -0.2779
      4 H          12.3635   40.5613    6.2972 H       1  UNL1        0.1553
      5 C          14.6445   42.5762    7.0465 C.ar    1  UNL1        0.1141
      6 C          13.3923   42.3510    6.5219 C.ar    1  UNL1        0.0908
      7 C          13.1599   43.3120    5.5545 C.ar    1  UNL1        0.1364
      8 N          15.1252   43.6501    6.3947 N.ar    1  UNL1       -0.2187
      9 N          14.2546   44.0956    5.5030 N.ar    1  UNL1       -0.1641
     10 C          16.4319   44.2478    6.6083 C.3     1  UNL1        0.2733
     11 O          16.6993   44.3249    7.9757 O.3     1  UNL1       -0.3311
     12 C          17.6630   42.2477    8.6089 C.3     1  UNL1        0.0347
     13 C          17.9159   43.6627    8.1325 C.3     1  UNL1        0.1446
     14 C          10.9432   40.0852    8.4446 C.2     1  UNL1        0.0580
     15 C          11.2113   39.0100    9.1980 C.2     1  UNL1        0.0047
     16 C          12.4923   38.6465    9.8290 C.ar    1  UNL1        0.0003
     17 C          12.8875   39.3367   10.9794 C.ar    1  UNL1        0.0031
     18 C          14.0622   38.9812   11.6484 C.ar    1  UNL1        0.0371
     19 C          14.8470   37.9144   11.1822 C.ar    1  UNL1        0.1443
     20 C          14.4369   37.2062   10.0487 C.ar    1  UNL1        0.0371
     21 C          13.2619   37.5630    9.3813 C.ar    1  UNL1        0.0031
     22 O          16.0311   37.5379   11.8239 O.3     1  UNL1       -0.4236
     23 C          17.3208   37.9185   11.3596 C.3     1  UNL1        0.5087
     24 F          17.3714   39.2922   11.2221 F       1  UNL1       -0.1550
     25 F          17.5706   37.3283   10.1342 F       1  UNL1       -0.1550
@<TRIPOS>BOND
     1    12    13    1
     2    13    11    1
     3    10    11    1
     4    10     8    1
     5     6     3    1
     6     6     7   ar
     7     1    14    1
     8    15    16    1
     9    17    18   ar
    10    19    22    1
    11    19    20   ar
    12    23    22    1
    13    23    24    1
    14    23    25    1
    15    21    16   ar
    16     8     5   ar
    17     8     9   ar
    18     3     1   am
    19     5     6   ar
    20     1     2    2
    21    14    15    2
    22    16    17   ar
    23    18    19   ar
    24    20    21   ar
    25     7     9   ar
    26     3     4    1
@<TRIPOS>MOLECULE
MolPort-001-657-850 8782554 CSSS00160412166 PubChem-19584611 ZINC000008782554 ZINC08782554
 25 26 0 0 0
SMALL
GASTEIGER

@<TRIPOS>ATOM
      1 C          10.4037   41.8337   10.6146 C.2     1  UNL1        0.2497
      2 O          10.6412   43.0713   10.6096 O.2     1  UNL1       -0.2698
      3 N          10.7019   41.0310    9.4674 N.am    1  UNL1       -0.2779
      4 H          10.4483   40.0804    9.5031 H       1  UNL1        0.1553
      5 C          12.6077   42.0249    8.2112 C.ar    1  UNL1        0.1141
      6 C          11.3384   41.4966    8.2726 C.ar    1  UNL1        0.0908
      7 C          10.8134   41.5074    6.9929 C.ar    1  UNL1        0.1364
      8 N          12.8105   42.3372    6.9187 N.ar    1  UNL1       -0.2187
      9 N          11.7536   42.0321    6.1831 N.ar    1  UNL1       -0.1641
     10 C          14.0274   42.9144    6.3743 C.3     1  UNL1        0.2733
     11 O          13.7684   44.1988    5.8942 O.3     1  UNL1       -0.3311
     12 C          15.9590   44.1277    6.8113 C.3     1  UNL1        0.0347
     13 C          15.0195   44.8113    5.8401 C.3     1  UNL1        0.1446
     14 C           9.7375   41.1970   11.7621 C.2     1  UNL1        0.0580
     15 C           8.4201   41.0637   11.9674 C.2     1  UNL1        0.0047
     16 C           7.3200   41.6431   11.1767 C.ar    1  UNL1        0.0003
     17 C           7.6395   42.3891   10.0377 C.ar    1  UNL1        0.0031
     18 C           6.6271   42.9017    9.2215 C.ar    1  UNL1        0.0371
     19 C           5.2790   42.6560    9.5274 C.ar    1  UNL1        0.1443
     20 C           4.9604   41.8863   10.6502 C.ar    1  UNL1        0.0371
     21 C           5.9741   41.3744   11.4648 C.ar    1  UNL1        0.0031
     22 O           4.2421   43.1602    8.7359 O.3     1  UNL1       -0.4236
     23 C           4.2570   44.4689    8.1782 C.3     1  UNL1        0.5087
     24 F           2.9593   44.8867    7.9551 F       1  UNL1       -0.1550
     25 F           4.9454   44.4592    6.9789 F       1  UNL1       -0.1550
@<TRIPOS>BOND
     1    12    13    1
     2    13    11    1
     3    10    11    1
     4    10     8    1
     5     6     3    1
     6     6     7   ar
     7     1    14    1
     8    15    16    1
     9    17    18   ar
    10    19    22    1
    11    19    20   ar
    12    23    22    1
    13    23    24    1
    14    23    25    1
    15    21    16   ar
    16     8     5   ar
    17     8     9   ar
    18     3     1   am
    19     5     6   ar
    20     1     2    2
    21    14    15    2
    22    16    17   ar
    23    18    19   ar
    24    20    21   ar
    25     7     9   ar
    26     3     4    1
@<TRIPOS>MOLECULE
MolPort-001-657-850 8782554 CSSS00160412166 PubChem-19584611 ZINC000008782554 ZINC08782554
 25 26 0 0 0
SMALL
GASTEIGER

@<TRIPOS>ATOM
      1 C          11.0015   39.6220    7.6744 C.2     1  UNL1        0.2497
      2 O          11.9098   39.3832    8.5147 O.2     1  UNL1       -0.2698
      3 N          11.0333   40.8183    6.8889 N.am    1  UNL1       -0.2779
      4 H          10.2728   40.9830    6.2857 H       1  UNL1        0.1553
      5 C          12.8039   42.1951    5.8083 C.ar    1  UNL1        0.1141
      6 C          12.0798   41.7951    6.9081 C.ar    1  UNL1        0.0908
      7 C          12.5503   42.4979    8.0027 C.ar    1  UNL1        0.1364
      8 N          13.6786   43.1111    6.2610 N.ar    1  UNL1       -0.2187
      9 N          13.5368   43.3030    7.5627 N.ar    1  UNL1       -0.1641
     10 C          14.6464   43.8244    5.4456 C.3     1  UNL1        0.2733
     11 O          15.3407   44.7448    6.2317 O.3     1  UNL1       -0.3311
     12 C          17.1864   44.0139    7.5370 C.3     1  UNL1        0.0347
     13 C          16.6724   44.3405    6.1506 C.3     1  UNL1        0.1446
     14 C           9.8431   38.7244    7.5385 C.2     1  UNL1        0.0580
     15 C           8.5633   39.0706    7.3442 C.2     1  UNL1        0.0047
     16 C           7.9813   40.4242    7.3635 C.ar    1  UNL1        0.0003
     17 C           7.4878   40.9541    6.1670 C.ar    1  UNL1        0.0031
     18 C           6.8680   42.2069    6.1512 C.ar    1  UNL1        0.0371
     19 C           6.7181   42.9373    7.3410 C.ar    1  UNL1        0.1443
     20 C           7.1861   42.3949    8.5416 C.ar    1  UNL1        0.0371
     21 C           7.8051   41.1420    8.5553 C.ar    1  UNL1        0.0031
     22 O           6.1095   44.1962    7.3586 O.3     1  UNL1       -0.4236
     23 C           4.9869   44.5046    8.1763 C.3     1  UNL1        0.5087
     24 F           4.1795   43.3890    8.2859 F       1  UNL1       -0.1550
     25 F           4.2632   45.5371    7.6085 F       1  UNL1       -0.1550
@<TRIPOS>BOND
     1    12    13    1
     2    13    11    1
     3    10    11    1
     4    10     8    1
     5     6     3    1
     6     6     7   ar
     7     1    14    1
     8    15    16    1
     9    17    18   ar
    10    19    22    1
    11    19    20   ar
    12    23    22    1
    13    23    24    1
    14    23    25    1
    15    21    16   ar
    16     8     5   ar
    17     8     9   ar
    18     3     1   am
    19     5     6   ar
    20     1     2    2
    21    14    15    2
    22    16    17   ar
    23    18    19   ar
    24    20    21   ar
    25     7     9   ar
    26     3     4    1
@<TRIPOS>MOLECULE
MolPort-001-657-850 8782554 CSSS00160412166 PubChem-19584611 ZINC000008782554 ZINC08782554
 25 26 0 0 0
SMALL
GASTEIGER

@<TRIPOS>ATOM
      1 C          12.7027   39.1662    9.6160 C.2     1  UNL1        0.2497
      2 O          12.7210   38.0208    9.0908 O.2     1  UNL1       -0.2698
      3 N          13.7089   39.5504   10.5590 N.am    1  UNL1       -0.2779
      4 H          13.6190   40.4359   10.9797 H       1  UNL1        0.1553
      5 C          16.1024   38.8796   10.4190 C.ar    1  UNL1        0.1141
      6 C          14.8351   38.7532   10.9406 C.ar    1  UNL1        0.0908
      7 C          14.8618   37.7330   11.8744 C.ar    1  UNL1        0.1364
      8 N          16.8468   37.9469   11.0394 N.ar    1  UNL1       -0.2187
      9 N          16.1230   37.2605   11.9092 N.ar    1  UNL1       -0.1641
     10 C          18.2640   37.7177   10.8171 C.3     1  UNL1        0.2733
     11 O          18.5397   37.7497    9.4495 O.3     1  UNL1       -0.3311
     12 C          19.6521   36.3893    7.8506 C.3     1  UNL1        0.0347
     13 C          18.8252   36.4259    9.1187 C.3     1  UNL1        0.1446
     14 C          11.6037   40.1058    9.3412 C.2     1  UNL1        0.0580
     15 C          11.6245   41.1656    8.5216 C.2     1  UNL1        0.0047
     16 C          12.7830   41.7343    7.8105 C.ar    1  UNL1        0.0003
     17 C          12.5467   42.6049    6.7418 C.ar    1  UNL1        0.0031
     18 C          13.6145   43.2189    6.0809 C.ar    1  UNL1        0.0371
     19 C          14.9346   42.9818    6.4965 C.ar    1  UNL1        0.1443
     20 C          15.1690   42.1337    7.5830 C.ar    1  UNL1        0.0371
     21 C          14.1000   41.5211    8.2428 C.ar    1  UNL1        0.0031
     22 O          16.0254   43.5744    5.8526 O.3     1  UNL1       -0.4236
     23 C          16.9680   44.4014    6.5243 C.3     1  UNL1        0.5087
     24 F          18.2267   43.8424    6.4167 F       1  UNL1       -0.1550
     25 F          16.6292   44.5079    7.8608 F       1  UNL1       -0.1550
@<TRIPOS>BOND
     1    12    13    1
     2    13    11    1
     3    10    11    1
     4    10     8    1
     5     6     3    1
     6     6     7   ar
     7     1    14    1
     8    15    16    1
     9    17    18   ar
    10    19    22    1
    11    19    20   ar
    12    23    22    1
    13    23    24    1
    14    23    25    1
    15    21    16   ar
    16     8     5   ar
    17     8     9   ar
    18     3     1   am
    19     5     6   ar
    20     1     2    2
    21    14    15    2
    22    16    17   ar
    23    18    19   ar
    24    20    21   ar
    25     7     9   ar
    26     3     4    1
@<TRIPOS>MOLECULE
MolPort-001-657-850 8782554 CSSS00160412166 PubChem-19584611 ZINC000008782554 ZINC08782554
 25 26 0 0 0
SMALL
GASTEIGER

@<TRIPOS>ATOM
      1 C          13.1848   42.8568    7.0424 C.2     1  UNL1        0.2497
      2 O          12.4753   43.1279    8.0480 O.2     1  UNL1       -0.2698
      3 N          12.6960   41.9796    6.0222 N.am    1  UNL1       -0.2779
      4 H          13.3095   41.7584    5.2847 H       1  UNL1        0.1553
      5 C          10.9712   40.4549    5.0741 C.ar    1  UNL1        0.1141
      6 C          11.3886   41.3973    5.9861 C.ar    1  UNL1        0.0908
      7 C          10.3279   41.6659    6.8323 C.ar    1  UNL1        0.1364
      8 N           9.6911   40.1863    5.3874 N.ar    1  UNL1       -0.2187
      9 N           9.2969   40.8966    6.4322 N.ar    1  UNL1       -0.1641
     10 C           8.8395   39.2319    4.6986 C.3     1  UNL1        0.2733
     11 O           8.8242   39.5117    3.3316 O.3     1  UNL1       -0.3311
     12 C           9.7000   37.3043    3.4039 C.3     1  UNL1        0.0347
     13 C           9.8104   38.6860    2.7941 C.3     1  UNL1        0.1446
     14 C          14.5620   43.3636    6.9307 C.2     1  UNL1        0.0580
     15 C          15.6756   42.8123    7.4321 C.2     1  UNL1        0.0047
     16 C          15.7811   41.6519    8.3341 C.ar    1  UNL1        0.0003
     17 C          16.9938   41.4298    8.9945 C.ar    1  UNL1        0.0031
     18 C          17.1187   40.3802    9.9091 C.ar    1  UNL1        0.0371
     19 C          16.0211   39.5500   10.1879 C.ar    1  UNL1        0.1443
     20 C          14.8009   39.7898    9.5490 C.ar    1  UNL1        0.0371
     21 C          14.6780   40.8400    8.6350 C.ar    1  UNL1        0.0031
     22 O          16.1146   38.4872   11.0920 O.3     1  UNL1       -0.4236
     23 C          15.0217   38.0484   11.8901 C.3     1  UNL1        0.5087
     24 F          14.2076   37.2233   11.1385 F       1  UNL1       -0.1550
     25 F          14.2901   39.1391   12.3231 F       1  UNL1       -0.1550
@<TRIPOS>BOND
     1    12    13    1
     2    13    11    1
     3    10    11    1
     4    10     8    1
     5     6     3    1
     6     6     7   ar
     7     1    14    1
     8    15    16    1
     9    17    18   ar
    10    19    22    1
    11    19    20   ar
    12    23    22    1
    13    23    24    1
    14    23    25    1
    15    21    16   ar
    16     8     5   ar
    17     8     9   ar
    18     3     1   am
    19     5     6   ar
    20     1     2    2
    21    14    15    2
    22    16    17   ar
    23    18    19   ar
    24    20    21   ar
    25     7     9   ar
    26     3     4    1
@<TRIPOS>MOLECULE
MolPort-001-657-850 8782554 CSSS00160412166 PubChem-19584611 ZINC000008782554 ZINC08782554
 25 26 0 0 0
SMALL
GASTEIGER

@<TRIPOS>ATOM
      1 C          12.6513   39.2084    9.8758 C.2     1  UNL1        0.2497
      2 O          11.7947   39.8958   10.4937 O.2     1  UNL1       -0.2698
      3 N          12.3191   38.5755    8.6355 N.am    1  UNL1       -0.2779
      4 H          13.0070   38.0068    8.2202 H       1  UNL1        0.1553
      5 C          10.8451   39.5177    6.8641 C.ar    1  UNL1        0.1141
      6 C          11.0690   38.7015    7.9493 C.ar    1  UNL1        0.0908
      7 C           9.8839   38.0498    8.2401 C.ar    1  UNL1        0.1364
      8 N           9.5526   39.3417    6.5360 N.ar    1  UNL1       -0.2187
      9 N           8.9703   38.4697    7.3434 N.ar    1  UNL1       -0.1641
     10 C           8.8688   39.9947    5.4330 C.3     1  UNL1        0.2733
     11 O           8.4525   39.0411    4.5032 O.3     1  UNL1       -0.3311
     12 C          10.0131   37.7141    3.2998 C.3     1  UNL1        0.0347
     13 C           9.4145   39.0912    3.4956 C.3     1  UNL1        0.1446
     14 C          13.9842   38.9674   10.4512 C.2     1  UNL1        0.0580
     15 C          15.1184   39.6287   10.1831 C.2     1  UNL1        0.0047
     16 C          15.3424   40.6549    9.1497 C.ar    1  UNL1        0.0003
     17 C          14.2571   41.0580    8.3651 C.ar    1  UNL1        0.0031
     18 C          14.4086   42.0749    7.4181 C.ar    1  UNL1        0.0371
     19 C          15.6482   42.7148    7.2588 C.ar    1  UNL1        0.1443
     20 C          16.7256   42.3312    8.0630 C.ar    1  UNL1        0.0371
     21 C          16.5720   41.3146    9.0096 C.ar    1  UNL1        0.0031
     22 O          15.8351   43.7304    6.3159 O.3     1  UNL1       -0.4236
     23 C          17.0938   44.3507    6.0820 C.3     1  UNL1        0.5087
     24 F          17.8747   43.5221    5.2997 F       1  UNL1       -0.1550
     25 F          17.7349   44.5781    7.2860 F       1  UNL1       -0.1550
@<TRIPOS>BOND
     1    12    13    1
     2    13    11    1
     3    10    11    1
     4    10     8    1
     5     6     3    1
     6     6     7   ar
     7     1    14    1
     8    15    16    1
     9    17    18   ar
    10    19    22    1
    11    19    20   ar
    12    23    22    1
    13    23    24    1
    14    23    25    1
    15    21    16   ar
    16     8     5   ar
    17     8     9   ar
    18     3     1   am
    19     5     6   ar
    20     1     2    2
    21    14    15    2
    22    16    17   ar
    23    18    19   ar
    24    20    21   ar
    25     7     9   ar
    26     3     4    1
@<TRIPOS>MOLECULE
MolPort-001-657-850 8782554 CSSS00160412166 PubChem-19584611 ZINC000008782554 ZINC08782554
 25 26 0 0 0
SMALL
GASTEIGER

@<TRIPOS>ATOM
      1 C          13.7080   39.7757    8.8126 C.2     1  UNL1        0.2497
      2 O          13.3871   40.3297    7.7272 O.2     1  UNL1       -0.2698
      3 N          14.9594   40.0751    9.4401 N.am    1  UNL1       -0.2779
      4 H          15.1853   39.5760   10.2581 H       1  UNL1        0.1553
      5 C          15.6088   42.1206    8.1782 C.ar    1  UNL1        0.1141
      6 C          15.9094   41.0403    8.9762 C.ar    1  UNL1        0.0908
      7 C          17.2688   41.0677    9.2306 C.ar    1  UNL1        0.1364
      8 N          16.7750   42.7587    7.9739 N.ar    1  UNL1       -0.2187
      9 N          17.7692   42.1457    8.5961 N.ar    1  UNL1       -0.1641
     10 C          16.9436   43.9733    7.1949 C.3     1  UNL1        0.2733
     11 O          16.3557   43.8155    5.9392 O.3     1  UNL1       -0.3311
     12 C          14.0298   44.2393    5.7045 C.3     1  UNL1        0.0347
     13 C          15.4115   44.8383    5.8635 C.3     1  UNL1        0.1446
     14 C          12.8481   38.7465    9.4186 C.2     1  UNL1        0.0580
     15 C          11.5835   38.8865    9.8389 C.2     1  UNL1        0.0047
     16 C          10.7954   40.1280    9.9323 C.ar    1  UNL1        0.0003
     17 C          10.0237   40.5116    8.8307 C.ar    1  UNL1        0.0031
     18 C           9.2099   41.6460    8.8984 C.ar    1  UNL1        0.0371
     19 C           9.1448   42.4008   10.0805 C.ar    1  UNL1        0.1443
     20 C           9.8944   42.0011   11.1909 C.ar    1  UNL1        0.0371
     21 C          10.7073   40.8663   11.1214 C.ar    1  UNL1        0.0031
     22 O           8.3464   43.5447   10.1790 O.3     1  UNL1       -0.4236
     23 C           7.8086   44.2161    9.0459 C.3     1  UNL1        0.5087
     24 F           7.7278   45.5695    9.3108 F       1  UNL1       -0.1550
     25 F           6.5441   43.7294    8.7695 F       1  UNL1       -0.1550
@<TRIPOS>BOND
     1    12    13    1
     2    13    11    1
     3    10    11    1
     4    10     8    1
     5     6     3    1
     6     6     7   ar
     7     1    14    1
     8    15    16    1
     9    17    18   ar
    10    19    22    1
    11    19    20   ar
    12    23    22    1
    13    23    24    1
    14    23    25    1
    15    21    16   ar
    16     8     5   ar
    17     8     9   ar
    18     3     1   am
    19     5     6   ar
    20     1     2    2
    21    14    15    2
    22    16    17   ar
    23    18    19   ar
    24    20    21   ar
    25     7     9   ar
    26     3     4    1
@<TRIPOS>MOLECULE
MolPort-001-657-850 8782554 CSSS00160412166 PubChem-19584611 ZINC000008782554 ZINC08782554
 25 26 0 0 0
SMALL
GASTEIGER

@<TRIPOS>ATOM
      1 C          11.3887   39.4852    8.9260 C.2     1  UNL1        0.2497
      2 O          10.7207   40.4486    9.3880 O.2     1  UNL1       -0.2698
      3 N          10.9387   38.7779    7.7656 N.am    1  UNL1       -0.2779
      4 H          11.4687   38.0001    7.4769 H       1  UNL1        0.1553
      5 C           8.7371   39.8904    7.4286 C.ar    1  UNL1        0.1141
      6 C           9.7813   39.1082    6.9905 C.ar    1  UNL1        0.0908
      7 C           9.4993   38.7130    5.6953 C.ar    1  UNL1        0.1364
      8 N           7.8666   39.9434    6.4046 N.ar    1  UNL1       -0.2187
      9 N           8.3084   39.2508    5.3671 N.ar    1  UNL1       -0.1641
     10 C           6.6112   40.6745    6.4054 C.3     1  UNL1        0.2733
     11 O           6.6953   41.7603    5.5329 O.3     1  UNL1       -0.3311
     12 C           6.2463   43.5568    7.0214 C.3     1  UNL1        0.0347
     13 C           7.3049   42.7654    6.2823 C.3     1  UNL1        0.1446
     14 C          12.5997   39.0075    9.6126 C.2     1  UNL1        0.0580
     15 C          13.8248   39.5488    9.5736 C.2     1  UNL1        0.0047
     16 C          14.2941   40.6603    8.7277 C.ar    1  UNL1        0.0003
     17 C          15.6137   41.0992    8.8763 C.ar    1  UNL1        0.0031
     18 C          16.1211   42.1059    8.0499 C.ar    1  UNL1        0.0371
     19 C          15.3158   42.6729    7.0492 C.ar    1  UNL1        0.1443
     20 C          14.0058   42.2142    6.8820 C.ar    1  UNL1        0.0371
     21 C          13.5004   41.2073    7.7091 C.ar    1  UNL1        0.0031
     22 O          15.7903   43.6865    6.2106 O.3     1  UNL1       -0.4236
     23 C          17.0381   44.3396    6.4112 C.3     1  UNL1        0.5087
     24 F          18.0499   43.5715    5.8683 F       1  UNL1       -0.1550
     25 F          17.2679   44.5053    7.7648 F       1  UNL1       -0.1550
@<TRIPOS>BOND
     1    12    13    1
     2    13    11    1
     3    10    11    1
     4    10     8    1
     5     6     3    1
     6     6     7   ar
     7     1    14    1
     8    15    16    1
     9    17    18   ar
    10    19    22    1
    11    19    20   ar
    12    23    22    1
    13    23    24    1
    14    23    25    1
    15    21    16   ar
    16     8     5   ar
    17     8     9   ar
    18     3     1   am
    19     5     6   ar
    20     1     2    2
    21    14    15    2
    22    16    17   ar
    23    18    19   ar
    24    20    21   ar
    25     7     9   ar
    26     3     4    1
@<TRIPOS>MOLECULE
MolPort-001-657-850 8782554 CSSS00160412166 PubChem-19584611 ZINC000008782554 ZINC08782554
 25 26 0 0 0
SMALL
GASTEIGER

@<TRIPOS>ATOM
      1 C          13.8598   37.6045    9.3322 C.2     1  UNL1        0.2497
      2 O          14.5210   37.2137    8.3332 O.2     1  UNL1       -0.2698
      3 N          14.3205   38.7040   10.1248 N.am    1  UNL1       -0.2779
      4 H          13.7953   38.9355   10.9247 H       1  UNL1        0.1553
      5 C          15.4863   40.6591    9.1165 C.ar    1  UNL1        0.1141
      6 C          15.4819   39.4947    9.8501 C.ar    1  UNL1        0.0908
      7 C          16.7810   39.2442   10.2539 C.ar    1  UNL1        0.1364
      8 N          16.7662   41.0720    9.0955 N.ar    1  UNL1       -0.2187
      9 N          17.5458   40.2423    9.7702 N.ar    1  UNL1       -0.1641
     10 C          17.2504   42.2765    8.4435 C.3     1  UNL1        0.2733
     11 O          16.2917   42.7463    7.5449 O.3     1  UNL1       -0.3311
     12 C          15.9529   44.7493    6.3130 C.3     1  UNL1        0.0347
     13 C          16.9540   43.7259    6.8066 C.3     1  UNL1        0.1446
     14 C          12.6460   36.8911    9.7609 C.2     1  UNL1        0.0580
     15 C          11.3898   37.3571    9.7747 C.2     1  UNL1        0.0047
     16 C          10.9341   38.7323    9.5053 C.ar    1  UNL1        0.0003
     17 C          10.3622   39.0125    8.2602 C.ar    1  UNL1        0.0031
     18 C           9.8565   40.2863    7.9852 C.ar    1  UNL1        0.0371
     19 C           9.9008   41.2918    8.9642 C.ar    1  UNL1        0.1443
     20 C          10.4467   41.0034   10.2186 C.ar    1  UNL1        0.0371
     21 C          10.9515   39.7291   10.4917 C.ar    1  UNL1        0.0031
     22 O           9.4102   42.5783    8.7190 O.3     1  UNL1       -0.4236
     23 C           9.2443   43.5538    9.7410 C.3     1  UNL1        0.5087
     24 F           8.3443   44.5126    9.3177 F       1  UNL1       -0.1550
     25 F          10.4582   44.1572   10.0143 F       1  UNL1       -0.1550
@<TRIPOS>BOND
     1    12    13    1
     2    13    11    1
     3    10    11    1
     4    10     8    1
     5     6     3    1
     6     6     7   ar
     7     1    14    1
     8    15    16    1
     9    17    18   ar
    10    19    22    1
    11    19    20   ar
    12    23    22    1
    13    23    24    1
    14    23    25    1
    15    21    16   ar
    16     8     5   ar
    17     8     9   ar
    18     3     1   am
    19     5     6   ar
    20     1     2    2
    21    14    15    2
    22    16    17   ar
    23    18    19   ar
    24    20    21   ar
    25     7     9   ar
    26     3     4    1
