@<TRIPOS>MOLECULE
MolPort-020-295-316 MCULE-3182182916 PubChem-110267398
 34 38 0 0 0
SMALL
GASTEIGER

@<TRIPOS>ATOM
      1 C          12.6154   38.6409    8.7708 C.3     1  UNL1        0.0603
      2 C          11.8461   37.5749    9.5554 C.3     1  UNL1        0.0094
      3 C          12.8160   36.6493   10.2865 C.3     1  UNL1        0.0219
      4 C          13.7055   37.4612   11.2225 C.3     1  UNL1        0.0934
      5 C          13.5344   39.4393    9.6970 C.3     1  UNL1        0.0993
      6 C          15.7984   38.6393   10.4440 C.2     1  UNL1        0.2301
      7 N          14.3683   38.5209   10.4667 N.am    1  UNL1       -0.2789
      8 O          16.3487   39.5228    9.7331 O.2     1  UNL1       -0.2745
      9 C          11.3743   41.4611    6.6723 C.ar    1  UNL1        0.2214
     10 C           9.4845   40.1874    7.3138 C.ar    1  UNL1        0.1031
     11 C          10.3023   39.3094    8.0212 C.ar    1  UNL1        0.0356
     12 C          11.6815   39.5449    8.0312 C.ar    1  UNL1        0.0647
     13 N          10.0308   41.2420    6.6553 N.ar    1  UNL1       -0.2120
     14 N          12.1851   40.6126    7.3580 N.ar    1  UNL1       -0.2179
     15 N          11.9533   42.5724    5.9778 N.pl3   1  UNL1       -0.2680
     16 H          11.3744   43.0474    5.3387 H       1  UNL1        0.1565
     17 C          17.2811   44.4960    6.5704 C.3     1  UNL1        0.0327
     18 C          15.8934   43.9862    6.4210 C.ar    1  UNL1       -0.0026
     19 C          14.9584   44.6973    5.6671 C.ar    1  UNL1        0.0960
     20 C          13.2927   43.0597    6.1226 C.ar    1  UNL1        0.1343
     21 C          14.2046   42.3236    6.8844 C.ar    1  UNL1        0.0342
     22 C          15.5114   42.7917    7.0325 C.ar    1  UNL1        0.0001
     23 N          13.6900   44.2239    5.5350 N.ar    1  UNL1       -0.2293
     24 C          16.6583   37.7398   11.2739 C.3     1  UNL1        0.1131
     25 C          17.6373   37.0130   10.4124 C.ar    1  UNL1        0.0053
     26 C          19.0042   36.8929   10.6387 C.ar    1  UNL1        0.0685
     27 C          18.5626   35.7637    8.8638 C.ar    1  UNL1        0.0563
     28 C          18.6523   34.9609    7.7283 C.ar    1  UNL1        0.0170
     29 C          17.4661   34.6984    7.0184 C.ar    1  UNL1        0.0015
     30 C          16.2350   35.2360    7.4536 C.ar    1  UNL1        0.0001
     31 C          16.1749   36.0429    8.6037 C.ar    1  UNL1        0.0012
     32 C          17.3682   36.2830    9.2823 C.ar    1  UNL1        0.0135
     33 N          19.5733   36.1233    9.6760 N.ar    1  UNL1       -0.3522
     34 H          20.5234   35.8800    9.5903 H       1  UNL1        0.1660
@<TRIPOS>BOND
     1    17    18    1
     2    19    23   ar
     3    20    21   ar
     4    20    15    1
     5    22    18   ar
     6     9    14   ar
     7    10    13   ar
     8    11    12   ar
     9     1    12    1
    10     1     2    1
    11     2     3    1
    12     3     4    1
    13     4     7    1
    14     5     7    1
    15     5     1    1
    16    24     6    1
    17    24    25    1
    18    26    33   ar
    19    28    29   ar
    20    30    31   ar
    21    32    25   ar
    22    32    27   ar
    23    15     9    1
    24     7     6   am
    25    33    27   ar
    26    18    19   ar
    27    20    23   ar
    28    21    22   ar
    29     9    13   ar
    30    10    11   ar
    31    12    14   ar
    32     6     8    2
    33    25    26   ar
    34    27    28   ar
    35    29    30   ar
    36    31    32   ar
    37    15    16    1
    38    33    34    1
@<TRIPOS>MOLECULE
MolPort-020-295-316 MCULE-3182182916 PubChem-110267398
 34 38 0 0 0
SMALL
GASTEIGER

@<TRIPOS>ATOM
      1 C          13.3879   38.9126   10.2189 C.3     1  UNL1        0.0603
      2 C          14.0985   39.1175   11.5593 C.3     1  UNL1        0.0094
      3 C          15.0031   37.9268   11.8692 C.3     1  UNL1        0.0219
      4 C          16.0217   37.7410   10.7493 C.3     1  UNL1        0.0934
      5 C          14.4017   38.6935    9.0947 C.3     1  UNL1        0.0993
      6 C          15.5047   36.4835    8.6219 C.2     1  UNL1        0.2301
      7 N          15.3243   37.6264    9.4710 N.am    1  UNL1       -0.2789
      8 O          14.8430   36.3781    7.5542 O.2     1  UNL1       -0.2745
      9 C          11.9618   41.9093    8.5208 C.ar    1  UNL1        0.2214
     10 C          10.5506   41.4121   10.3556 C.ar    1  UNL1        0.1031
     11 C          11.3565   40.3284   10.6964 C.ar    1  UNL1        0.0356
     12 C          12.4812   40.0605    9.9083 C.ar    1  UNL1        0.0647
     13 N          10.8649   42.1797    9.2802 N.ar    1  UNL1       -0.2120
     14 N          12.7576   40.8548    8.8408 N.ar    1  UNL1       -0.2179
     15 N          12.2952   42.7168    7.3853 N.pl3   1  UNL1       -0.2680
     16 H          11.5446   43.0622    6.8500 H       1  UNL1        0.1565
     17 C          17.5478   44.1143    5.6841 C.3     1  UNL1        0.0327
     18 C          16.1812   43.7430    6.1341 C.ar    1  UNL1       -0.0026
     19 C          15.0615   44.3467    5.5595 C.ar    1  UNL1        0.0960
     20 C          13.6143   43.0707    6.9529 C.ar    1  UNL1        0.1343
     21 C          14.7144   42.4476    7.5488 C.ar    1  UNL1        0.0342
     22 C          16.0037   42.7874    7.1351 C.ar    1  UNL1        0.0001
     23 N          13.8137   44.0013    5.9769 N.ar    1  UNL1       -0.2293
     24 C          16.4896   35.4134    8.9710 C.3     1  UNL1        0.1131
     25 C          16.6158   34.4347    7.8507 C.ar    1  UNL1        0.0053
     26 C          17.5379   34.4866    6.8109 C.ar    1  UNL1        0.0685
     27 C          16.3918   32.6882    6.5413 C.ar    1  UNL1        0.0563
     28 C          15.8811   31.4824    6.0647 C.ar    1  UNL1        0.0170
     29 C          14.8305   30.8869    6.7868 C.ar    1  UNL1        0.0015
     30 C          14.3222   31.5009    7.9524 C.ar    1  UNL1        0.0001
     31 C          14.8576   32.7181    8.4100 C.ar    1  UNL1        0.0012
     32 C          15.8966   33.2803    7.6707 C.ar    1  UNL1        0.0135
     33 N          17.3928   33.4069    6.0008 N.ar    1  UNL1       -0.3522
     34 H          17.9099   33.1949    5.1903 H       1  UNL1        0.1660
@<TRIPOS>BOND
     1    17    18    1
     2    19    23   ar
     3    20    21   ar
     4    20    15    1
     5    22    18   ar
     6     9    14   ar
     7    10    13   ar
     8    11    12   ar
     9     1    12    1
    10     1     2    1
    11     2     3    1
    12     3     4    1
    13     4     7    1
    14     5     7    1
    15     5     1    1
    16    24     6    1
    17    24    25    1
    18    26    33   ar
    19    28    29   ar
    20    30    31   ar
    21    32    25   ar
    22    32    27   ar
    23    15     9    1
    24     7     6   am
    25    33    27   ar
    26    18    19   ar
    27    20    23   ar
    28    21    22   ar
    29     9    13   ar
    30    10    11   ar
    31    12    14   ar
    32     6     8    2
    33    25    26   ar
    34    27    28   ar
    35    29    30   ar
    36    31    32   ar
    37    15    16    1
    38    33    34    1
@<TRIPOS>MOLECULE
MolPort-020-295-316 MCULE-3182182916 PubChem-110267398
 34 38 0 0 0
SMALL
GASTEIGER

@<TRIPOS>ATOM
      1 C          13.4705   38.8055   10.2633 C.3     1  UNL1        0.0603
      2 C          12.9925   37.3537   10.3505 C.3     1  UNL1        0.0094
      3 C          11.4763   37.2820   10.1832 C.3     1  UNL1        0.0219
      4 C          11.0699   37.8973    8.8480 C.3     1  UNL1        0.0934
      5 C          13.0393   39.4407    8.9403 C.3     1  UNL1        0.0993
      6 C          10.7436   40.3801    8.5267 C.2     1  UNL1        0.2301
      7 N          11.6033   39.2538    8.7547 N.am    1  UNL1       -0.2789
      8 O          11.2199   41.5471    8.5140 O.2     1  UNL1       -0.2745
      9 C          16.9789   40.0356    9.9889 C.ar    1  UNL1        0.2214
     10 C          17.0256   38.0979   11.3484 C.ar    1  UNL1        0.1031
     11 C          15.6460   37.9582   11.2162 C.ar    1  UNL1        0.0356
     12 C          14.9519   38.8974   10.4456 C.ar    1  UNL1        0.0647
     13 N          17.6649   39.1279   10.7363 N.ar    1  UNL1       -0.2120
     14 N          15.6323   39.9125    9.8510 N.ar    1  UNL1       -0.2179
     15 N          17.6507   41.1235    9.3427 N.pl3   1  UNL1       -0.2680
     16 H          18.6175   41.2097    9.5077 H       1  UNL1        0.1565
     17 C          15.2891   45.0138    5.9185 C.3     1  UNL1        0.0327
     18 C          15.9134   44.0042    6.8122 C.ar    1  UNL1       -0.0026
     19 C          15.2239   42.8382    7.1490 C.ar    1  UNL1        0.0960
     20 C          17.0529   42.0984    8.4798 C.ar    1  UNL1        0.1343
     21 C          17.7702   43.2552    8.1622 C.ar    1  UNL1        0.0342
     22 C          17.1950   44.2115    7.3235 C.ar    1  UNL1        0.0001
     23 N          15.8023   41.9188    7.9678 N.ar    1  UNL1       -0.2293
     24 C           9.2805   40.1936    8.2785 C.3     1  UNL1        0.1131
     25 C           8.5098   41.3620    8.7980 C.ar    1  UNL1        0.0053
     26 C           8.4669   41.8003   10.1171 C.ar    1  UNL1        0.0685
     27 C           7.2834   43.1740    8.9627 C.ar    1  UNL1        0.0563
     28 C           6.4729   44.2322    8.5559 C.ar    1  UNL1        0.0170
     29 C           6.1534   44.3222    7.1885 C.ar    1  UNL1        0.0015
     30 C           6.6447   43.3667    6.2721 C.ar    1  UNL1        0.0001
     31 C           7.4610   42.3094    6.7116 C.ar    1  UNL1        0.0012
     32 C           7.7573   42.2502    8.0720 C.ar    1  UNL1        0.0135
     33 N           7.7035   42.9187   10.2152 N.ar    1  UNL1       -0.3522
     34 H           7.5005   43.4333   11.0296 H       1  UNL1        0.1660
@<TRIPOS>BOND
     1    17    18    1
     2    19    23   ar
     3    20    21   ar
     4    20    15    1
     5    22    18   ar
     6     9    14   ar
     7    10    13   ar
     8    11    12   ar
     9     1    12    1
    10     1     2    1
    11     2     3    1
    12     3     4    1
    13     4     7    1
    14     5     7    1
    15     5     1    1
    16    24     6    1
    17    24    25    1
    18    26    33   ar
    19    28    29   ar
    20    30    31   ar
    21    32    25   ar
    22    32    27   ar
    23    15     9    1
    24     7     6   am
    25    33    27   ar
    26    18    19   ar
    27    20    23   ar
    28    21    22   ar
    29     9    13   ar
    30    10    11   ar
    31    12    14   ar
    32     6     8    2
    33    25    26   ar
    34    27    28   ar
    35    29    30   ar
    36    31    32   ar
    37    15    16    1
    38    33    34    1
@<TRIPOS>MOLECULE
MolPort-020-295-316 MCULE-3182182916 PubChem-110267398
 34 38 0 0 0
SMALL
GASTEIGER

@<TRIPOS>ATOM
      1 C          12.6270   39.3504   10.1590 C.3     1  UNL1        0.0603
      2 C          12.1504   37.9828    9.6629 C.3     1  UNL1        0.0094
      3 C          10.6529   38.0171    9.3658 C.3     1  UNL1        0.0219
      4 C          10.3521   39.0944    8.3287 C.3     1  UNL1        0.0934
      5 C          12.3005   40.4423    9.1386 C.3     1  UNL1        0.0993
      6 C          10.0411   41.5265    8.9305 C.2     1  UNL1        0.2301
      7 N          10.8850   40.3745    8.7879 N.am    1  UNL1       -0.2789
      8 O          10.5115   42.6022    9.3894 O.2     1  UNL1       -0.2745
      9 C          16.2741   40.1031    9.9858 C.ar    1  UNL1        0.2214
     10 C          15.9642   38.5679   11.7613 C.ar    1  UNL1        0.1031
     11 C          14.5933   38.5439   11.5163 C.ar    1  UNL1        0.0356
     12 C          14.0886   39.3301   10.4747 C.ar    1  UNL1        0.0647
     13 N          16.7766   39.3423   10.9966 N.ar    1  UNL1       -0.2120
     14 N          14.9382   40.0903    9.7350 N.ar    1  UNL1       -0.2179
     15 N          17.1287   40.9215    9.1781 N.pl3   1  UNL1       -0.2680
     16 H          18.0908   40.7137    9.1975 H       1  UNL1        0.1565
     17 C          15.5188   45.2727    5.8748 C.3     1  UNL1        0.0327
     18 C          15.9475   44.1418    6.7380 C.ar    1  UNL1       -0.0026
     19 C          15.1042   43.0475    6.9367 C.ar    1  UNL1        0.0960
     20 C          16.7197   42.0129    8.3451 C.ar    1  UNL1        0.1343
     21 C          17.5879   43.0937    8.1669 C.ar    1  UNL1        0.0342
     22 C          17.1972   44.1625    7.3582 C.ar    1  UNL1        0.0001
     23 N          15.5040   42.0161    7.7284 N.ar    1  UNL1       -0.2293
     24 C           8.6035   41.4829    8.5200 C.3     1  UNL1        0.1131
     25 C           7.7163   41.5389    9.7194 C.ar    1  UNL1        0.0053
     26 C           8.1179   41.7625   11.0320 C.ar    1  UNL1        0.0685
     27 C           5.9747   41.5989   11.0528 C.ar    1  UNL1        0.0563
     28 C           4.6368   41.5562   11.4405 C.ar    1  UNL1        0.0170
     29 C           3.6724   41.3459   10.4377 C.ar    1  UNL1        0.0015
     30 C           4.0615   41.1861    9.0897 C.ar    1  UNL1        0.0001
     31 C           5.4196   41.2341    8.7278 C.ar    1  UNL1        0.0012
     32 C           6.3479   41.4435    9.7460 C.ar    1  UNL1        0.0135
     33 N           7.0379   41.7943   11.8540 N.ar    1  UNL1       -0.3522
     34 H           7.0336   41.9312   12.8290 H       1  UNL1        0.1660
@<TRIPOS>BOND
     1    17    18    1
     2    19    23   ar
     3    20    21   ar
     4    20    15    1
     5    22    18   ar
     6     9    14   ar
     7    10    13   ar
     8    11    12   ar
     9     1    12    1
    10     1     2    1
    11     2     3    1
    12     3     4    1
    13     4     7    1
    14     5     7    1
    15     5     1    1
    16    24     6    1
    17    24    25    1
    18    26    33   ar
    19    28    29   ar
    20    30    31   ar
    21    32    25   ar
    22    32    27   ar
    23    15     9    1
    24     7     6   am
    25    33    27   ar
    26    18    19   ar
    27    20    23   ar
    28    21    22   ar
    29     9    13   ar
    30    10    11   ar
    31    12    14   ar
    32     6     8    2
    33    25    26   ar
    34    27    28   ar
    35    29    30   ar
    36    31    32   ar
    37    15    16    1
    38    33    34    1
@<TRIPOS>MOLECULE
MolPort-020-295-316 MCULE-3182182916 PubChem-110267398
 34 38 0 0 0
SMALL
GASTEIGER

@<TRIPOS>ATOM
      1 C          13.2413   38.8924   10.4049 C.3     1  UNL1        0.0603
      2 C          12.6830   37.4800   10.2120 C.3     1  UNL1        0.0094
      3 C          11.1631   37.5236   10.0710 C.3     1  UNL1        0.0219
      4 C          10.7742   38.4151    8.8961 C.3     1  UNL1        0.0934
      5 C          12.8291   39.8022    9.2464 C.3     1  UNL1        0.0993
      6 C          10.5850   40.9256    9.0854 C.2     1  UNL1        0.2301
      7 N          11.3824   39.7326    9.0626 N.am    1  UNL1       -0.2789
      8 O          11.1266   42.0445    9.2943 O.2     1  UNL1       -0.2745
      9 C          16.8282   39.8643   10.1097 C.ar    1  UNL1        0.2214
     10 C          16.7481   37.8869   11.4092 C.ar    1  UNL1        0.1031
     11 C          15.3602   37.8551   11.2957 C.ar    1  UNL1        0.0356
     12 C          14.7279   38.8673   10.5653 C.ar    1  UNL1        0.0647
     13 N          17.4544   38.8848   10.8179 N.ar    1  UNL1       -0.2120
     14 N          15.4743   39.8468    9.9905 N.ar    1  UNL1       -0.2179
     15 N          17.5708   40.9187    9.4857 N.pl3   1  UNL1       -0.2680
     16 H          18.5359   40.9558    9.6769 H       1  UNL1        0.1565
     17 C          15.4995   44.9304    6.0141 C.3     1  UNL1        0.0327
     18 C          16.0481   43.8889    6.9208 C.ar    1  UNL1       -0.0026
     19 C          15.3166   42.7307    7.1885 C.ar    1  UNL1        0.0960
     20 C          17.0461   41.9242    8.6105 C.ar    1  UNL1        0.1343
     21 C          17.8040   43.0723    8.3634 C.ar    1  UNL1        0.0342
     22 C          17.2999   44.0582    7.5133 C.ar    1  UNL1        0.0001
     23 N          15.8258   41.7819    8.0197 N.ar    1  UNL1       -0.2293
     24 C           9.1104   40.8703    8.8410 C.3     1  UNL1        0.1131
     25 C           8.8230   40.2230    7.5268 C.ar    1  UNL1        0.0053
     26 C           7.6928   39.4798    7.2037 C.ar    1  UNL1        0.0685
     27 C           8.8992   39.5874    5.4280 C.ar    1  UNL1        0.0563
     28 C           9.3923   39.4521    4.1316 C.ar    1  UNL1        0.0170
     29 C          10.6232   40.0652    3.8335 C.ar    1  UNL1        0.0015
     30 C          11.3228   40.7896    4.8234 C.ar    1  UNL1        0.0001
     31 C          10.8005   40.9095    6.1235 C.ar    1  UNL1        0.0012
     32 C           9.5799   40.2897    6.3844 C.ar    1  UNL1        0.0135
     33 N           7.7462   39.0847    5.9060 N.ar    1  UNL1       -0.3522
     34 H           7.0826   38.5452    5.4184 H       1  UNL1        0.1660
@<TRIPOS>BOND
     1    17    18    1
     2    19    23   ar
     3    20    21   ar
     4    20    15    1
     5    22    18   ar
     6     9    14   ar
     7    10    13   ar
     8    11    12   ar
     9     1    12    1
    10     1     2    1
    11     2     3    1
    12     3     4    1
    13     4     7    1
    14     5     7    1
    15     5     1    1
    16    24     6    1
    17    24    25    1
    18    26    33   ar
    19    28    29   ar
    20    30    31   ar
    21    32    25   ar
    22    32    27   ar
    23    15     9    1
    24     7     6   am
    25    33    27   ar
    26    18    19   ar
    27    20    23   ar
    28    21    22   ar
    29     9    13   ar
    30    10    11   ar
    31    12    14   ar
    32     6     8    2
    33    25    26   ar
    34    27    28   ar
    35    29    30   ar
    36    31    32   ar
    37    15    16    1
    38    33    34    1
@<TRIPOS>MOLECULE
MolPort-020-295-316 MCULE-3182182916 PubChem-110267398
 34 38 0 0 0
SMALL
GASTEIGER

@<TRIPOS>ATOM
      1 C          13.1929   39.0402   10.0402 C.3     1  UNL1        0.0603
      2 C          12.5613   37.6930   10.4003 C.3     1  UNL1        0.0094
      3 C          11.0648   37.7091   10.0967 C.3     1  UNL1        0.0219
      4 C          10.8357   38.0278    8.6228 C.3     1  UNL1        0.0934
      5 C          12.9404   39.3830    8.5710 C.3     1  UNL1        0.0993
      6 C          10.7965   40.3856    7.7210 C.2     1  UNL1        0.2301
      7 N          11.5130   39.2767    8.2838 N.am    1  UNL1       -0.2789
      8 O          11.3909   41.4743    7.4967 O.2     1  UNL1       -0.2745
      9 C          16.7912   40.0144    9.9987 C.ar    1  UNL1        0.2214
     10 C          16.5811   38.1920   11.4953 C.ar    1  UNL1        0.1031
     11 C          15.2117   38.1320   11.2479 C.ar    1  UNL1        0.0356
     12 C          14.6559   39.0500   10.3501 C.ar    1  UNL1        0.0647
     13 N          17.3431   39.1264   10.8704 N.ar    1  UNL1       -0.2120
     14 N          15.4561   39.9683    9.7475 N.ar    1  UNL1       -0.2179
     15 N          17.5925   41.0017    9.3388 N.pl3   1  UNL1       -0.2680
     16 H          18.5649   40.9554    9.4858 H       1  UNL1        0.1565
     17 C          15.6853   45.1552    5.9407 C.3     1  UNL1        0.0327
     18 C          16.1742   44.0672    6.8267 C.ar    1  UNL1       -0.0026
     19 C          17.4600   44.1220    7.3669 C.ar    1  UNL1        0.0960
     20 C          17.1169   42.0498    8.4857 C.ar    1  UNL1        0.1343
     21 C          15.8242   41.9643    7.9609 C.ar    1  UNL1        0.0342
     22 C          15.3529   42.9801    7.1273 C.ar    1  UNL1        0.0001
     23 N          17.9002   43.1219    8.1772 N.ar    1  UNL1       -0.2293
     24 C           9.3474   40.2673    7.3703 C.3     1  UNL1        0.1131
     25 C           8.6909   41.6077    7.4043 C.ar    1  UNL1        0.0053
     26 C           7.9017   42.1646    6.4038 C.ar    1  UNL1        0.0685
     27 C           7.9232   43.5642    8.0351 C.ar    1  UNL1        0.0563
     28 C           7.7092   44.6692    8.8568 C.ar    1  UNL1        0.0170
     29 C           8.3123   44.6645   10.1280 C.ar    1  UNL1        0.0015
     30 C           9.1035   43.5711   10.5433 C.ar    1  UNL1        0.0001
     31 C           9.3018   42.4691    9.6925 C.ar    1  UNL1        0.0012
     32 C           8.6905   42.5068    8.4407 C.ar    1  UNL1        0.0135
     33 N           7.4327   43.3766    6.7962 N.ar    1  UNL1       -0.3522
     34 H           6.8563   43.9883    6.2834 H       1  UNL1        0.1660
@<TRIPOS>BOND
     1    17    18    1
     2    19    23   ar
     3    20    21   ar
     4    20    15    1
     5    22    18   ar
     6     9    14   ar
     7    10    13   ar
     8    11    12   ar
     9     1    12    1
    10     1     2    1
    11     2     3    1
    12     3     4    1
    13     4     7    1
    14     5     7    1
    15     5     1    1
    16    24     6    1
    17    24    25    1
    18    26    33   ar
    19    28    29   ar
    20    30    31   ar
    21    32    25   ar
    22    32    27   ar
    23    15     9    1
    24     7     6   am
    25    33    27   ar
    26    18    19   ar
    27    20    23   ar
    28    21    22   ar
    29     9    13   ar
    30    10    11   ar
    31    12    14   ar
    32     6     8    2
    33    25    26   ar
    34    27    28   ar
    35    29    30   ar
    36    31    32   ar
    37    15    16    1
    38    33    34    1
@<TRIPOS>MOLECULE
MolPort-020-295-316 MCULE-3182182916 PubChem-110267398
 34 38 0 0 0
SMALL
GASTEIGER

@<TRIPOS>ATOM
      1 C          12.6920   41.7049    7.1926 C.3     1  UNL1        0.0603
      2 C          12.1600   41.2961    5.8165 C.3     1  UNL1        0.0094
      3 C          10.8033   40.6087    5.9536 C.3     1  UNL1        0.0219
      4 C           9.8162   41.5388    6.6515 C.3     1  UNL1        0.0934
      5 C          11.6936   42.6125    7.9132 C.3     1  UNL1        0.0993
      6 C           9.6844   41.7609    9.1629 C.2     1  UNL1        0.2301
      7 N          10.3788   41.9780    7.9259 N.am    1  UNL1       -0.2789
      8 O          10.2197   42.0916   10.2552 O.2     1  UNL1       -0.2745
      9 C          16.3038   42.4473    7.7418 C.ar    1  UNL1        0.2214
     10 C          15.4996   44.0276    6.1731 C.ar    1  UNL1        0.1031
     11 C          14.2294   43.4593    6.2347 C.ar    1  UNL1        0.0356
     12 C          14.0306   42.3620    7.0798 C.ar    1  UNL1        0.0647
     13 N          16.5092   43.5152    6.9231 N.ar    1  UNL1       -0.2120
     14 N          15.0697   41.8818    7.8122 N.ar    1  UNL1       -0.2179
     15 N          17.3673   41.9042    8.5334 N.pl3   1  UNL1       -0.2680
     16 H          18.2070   42.4173    8.5613 H       1  UNL1        0.1565
     17 C          17.1917   37.0731   11.5444 C.3     1  UNL1        0.0327
     18 C          17.2280   38.3349   10.7606 C.ar    1  UNL1       -0.0026
     19 C          18.4048   38.7380   10.1274 C.ar    1  UNL1        0.0960
     20 C          17.3278   40.6873    9.2885 C.ar    1  UNL1        0.1343
     21 C          16.1336   40.3124    9.9104 C.ar    1  UNL1        0.0342
     22 C          16.0862   39.1292   10.6497 C.ar    1  UNL1        0.0001
     23 N          18.4299   39.8945    9.4116 N.ar    1  UNL1       -0.2293
     24 C           8.3131   41.1640    9.1812 C.3     1  UNL1        0.1131
     25 C           7.2763   42.2360    9.1131 C.ar    1  UNL1        0.0053
     26 C           7.5000   43.5838    8.8531 C.ar    1  UNL1        0.0685
     27 C           5.3749   43.3297    9.0524 C.ar    1  UNL1        0.0563
     28 C           3.9986   43.5409    9.1089 C.ar    1  UNL1        0.0170
     29 C           3.1763   42.4266    9.3581 C.ar    1  UNL1        0.0015
     30 C           3.7401   41.1450    9.5417 C.ar    1  UNL1        0.0001
     31 C           5.1330   40.9619    9.4789 C.ar    1  UNL1        0.0012
     32 C           5.9176   42.0867    9.2310 C.ar    1  UNL1        0.0135
     33 N           6.3217   44.2573    8.8210 N.ar    1  UNL1       -0.3522
     34 H           6.1884   45.2197    8.6623 H       1  UNL1        0.1660
@<TRIPOS>BOND
     1    17    18    1
     2    19    23   ar
     3    20    21   ar
     4    20    15    1
     5    22    18   ar
     6     9    14   ar
     7    10    13   ar
     8    11    12   ar
     9     1    12    1
    10     1     2    1
    11     2     3    1
    12     3     4    1
    13     4     7    1
    14     5     7    1
    15     5     1    1
    16    24     6    1
    17    24    25    1
    18    26    33   ar
    19    28    29   ar
    20    30    31   ar
    21    32    25   ar
    22    32    27   ar
    23    15     9    1
    24     7     6   am
    25    33    27   ar
    26    18    19   ar
    27    20    23   ar
    28    21    22   ar
    29     9    13   ar
    30    10    11   ar
    31    12    14   ar
    32     6     8    2
    33    25    26   ar
    34    27    28   ar
    35    29    30   ar
    36    31    32   ar
    37    15    16    1
    38    33    34    1
@<TRIPOS>MOLECULE
MolPort-020-295-316 MCULE-3182182916 PubChem-110267398
 34 38 0 0 0
SMALL
GASTEIGER

@<TRIPOS>ATOM
      1 C          11.7795   40.7356   10.0649 C.3     1  UNL1        0.0603
      2 C          12.1283   41.9364    9.1818 C.3     1  UNL1        0.0094
      3 C          10.8570   42.6536    8.7329 C.3     1  UNL1        0.0219
      4 C          10.0549   43.1027    9.9500 C.3     1  UNL1        0.0934
      5 C          10.9474   41.1725   11.2718 C.3     1  UNL1        0.0993
      6 C           8.4669   41.5759   11.1835 C.2     1  UNL1        0.2301
      7 N           9.8017   41.9546   10.8168 N.am    1  UNL1       -0.2789
      8 O           8.2710   40.5438   11.8800 O.2     1  UNL1       -0.2745
      9 C          15.3561   39.7136   10.3138 C.ar    1  UNL1        0.2214
     10 C          14.1364   38.3482   11.8148 C.ar    1  UNL1        0.1031
     11 C          12.9532   38.9879   11.4532 C.ar    1  UNL1        0.0356
     12 C          13.0125   40.0083   10.4976 C.ar    1  UNL1        0.0647
     13 N          15.3107   38.7194   11.2426 N.ar    1  UNL1       -0.2120
     14 N          14.2096   40.3474    9.9510 N.ar    1  UNL1       -0.2179
     15 N          16.5936   40.1078    9.7091 N.pl3   1  UNL1       -0.2680
     16 H          17.3924   39.5858    9.9512 H       1  UNL1        0.1565
     17 C          17.3214   44.3982    6.0350 C.3     1  UNL1        0.0327
     18 C          17.1218   43.2801    6.9930 C.ar    1  UNL1       -0.0026
     19 C          18.2208   42.6371    7.5650 C.ar    1  UNL1        0.0960
     20 C          16.7819   41.1876    8.7865 C.ar    1  UNL1        0.1343
     21 C          15.6603   41.8100    8.2315 C.ar    1  UNL1        0.0342
     22 C          15.8342   42.8619    7.3303 C.ar    1  UNL1        0.0001
     23 N          18.0297   41.6143    8.4412 N.ar    1  UNL1       -0.2293
     24 C           7.2913   42.4031   10.7700 C.3     1  UNL1        0.1131
     25 C           6.5303   41.7214    9.6815 C.ar    1  UNL1        0.0053
     26 C           5.1465   41.6535    9.5610 C.ar    1  UNL1        0.0685
     27 C           5.9733   40.6656    7.8403 C.ar    1  UNL1        0.0563
     28 C           6.1390   39.9807    6.6381 C.ar    1  UNL1        0.0170
     29 C           7.4540   39.7408    6.1987 C.ar    1  UNL1        0.0015
     30 C           8.5574   40.1850    6.9596 C.ar    1  UNL1        0.0001
     31 C           8.3597   40.8741    8.1694 C.ar    1  UNL1        0.0012
     32 C           7.0447   41.0942    8.5750 C.ar    1  UNL1        0.0135
     33 N           4.8063   40.9956    8.4233 N.ar    1  UNL1       -0.3522
     34 H           3.8988   40.8013    8.0946 H       1  UNL1        0.1660
@<TRIPOS>BOND
     1    17    18    1
     2    19    23   ar
     3    20    21   ar
     4    20    15    1
     5    22    18   ar
     6     9    14   ar
     7    10    13   ar
     8    11    12   ar
     9     1    12    1
    10     1     2    1
    11     2     3    1
    12     3     4    1
    13     4     7    1
    14     5     7    1
    15     5     1    1
    16    24     6    1
    17    24    25    1
    18    26    33   ar
    19    28    29   ar
    20    30    31   ar
    21    32    25   ar
    22    32    27   ar
    23    15     9    1
    24     7     6   am
    25    33    27   ar
    26    18    19   ar
    27    20    23   ar
    28    21    22   ar
    29     9    13   ar
    30    10    11   ar
    31    12    14   ar
    32     6     8    2
    33    25    26   ar
    34    27    28   ar
    35    29    30   ar
    36    31    32   ar
    37    15    16    1
    38    33    34    1
@<TRIPOS>MOLECULE
MolPort-020-295-316 MCULE-3182182916 PubChem-110267398
 34 38 0 0 0
SMALL
GASTEIGER

@<TRIPOS>ATOM
      1 C          12.9905   41.2973    8.0778 C.3     1  UNL1        0.0603
      2 C          13.1064   40.6000    9.4357 C.3     1  UNL1        0.0094
      3 C          11.8033   39.8808    9.7772 C.3     1  UNL1        0.0219
      4 C          11.4648   38.8699    8.6865 C.3     1  UNL1        0.0934
      5 C          12.6197   40.2957    6.9828 C.3     1  UNL1        0.0993
      6 C          10.2719   39.5037    6.5536 C.2     1  UNL1        0.2301
      7 N          11.4371   39.5430    7.3905 N.am    1  UNL1       -0.2789
      8 O          10.2502   40.1456    5.4690 O.2     1  UNL1       -0.2745
      9 C          16.5977   42.2347    7.9905 C.ar    1  UNL1        0.2214
     10 C          15.4481   43.7621    6.5938 C.ar    1  UNL1        0.1031
     11 C          14.2406   43.1269    6.8739 C.ar    1  UNL1        0.0356
     12 C          14.2516   42.0246    7.7357 C.ar    1  UNL1        0.0647
     13 N          16.5992   43.3082    7.1534 N.ar    1  UNL1       -0.2120
     14 N          15.4270   41.6043    8.2730 N.ar    1  UNL1       -0.2179
     15 N          17.8107   41.7533    8.5815 N.pl3   1  UNL1       -0.2680
     16 H          18.5922   42.3506    8.5409 H       1  UNL1        0.1565
     17 C          18.5379   36.7266   11.1584 C.3     1  UNL1        0.0327
     18 C          18.3397   38.0392   10.4909 C.ar    1  UNL1       -0.0026
     19 C          19.2562   38.4925    9.5407 C.ar    1  UNL1        0.0960
     20 C          17.9973   40.4874    9.2259 C.ar    1  UNL1        0.1343
     21 C          17.0610   40.0628   10.1729 C.ar    1  UNL1        0.0342
     22 C          17.2356   38.8315   10.8071 C.ar    1  UNL1        0.0001
     23 N          19.0677   39.6954    8.9341 N.ar    1  UNL1       -0.2293
     24 C           9.0772   38.6890    6.9357 C.3     1  UNL1        0.1131
     25 C           7.8655   39.5553    7.0371 C.ar    1  UNL1        0.0053
     26 C           6.6991   39.4318    6.2898 C.ar    1  UNL1        0.0685
     27 C           6.3886   41.0492    7.6711 C.ar    1  UNL1        0.0563
     28 C           5.8441   42.1070    8.3968 C.ar    1  UNL1        0.0170
     29 C           6.6403   42.6888    9.4005 C.ar    1  UNL1        0.0015
     30 C           7.9434   42.2068    9.6528 C.ar    1  UNL1        0.0001
     31 C           8.4666   41.1373    8.9043 C.ar    1  UNL1        0.0012
     32 C           7.6515   40.5850    7.9181 C.ar    1  UNL1        0.0135
     33 N           5.7901   40.3607    6.6820 N.ar    1  UNL1       -0.3522
     34 H           4.8854   40.5007    6.3198 H       1  UNL1        0.1660
@<TRIPOS>BOND
     1    17    18    1
     2    19    23   ar
     3    20    21   ar
     4    20    15    1
     5    22    18   ar
     6     9    14   ar
     7    10    13   ar
     8    11    12   ar
     9     1    12    1
    10     1     2    1
    11     2     3    1
    12     3     4    1
    13     4     7    1
    14     5     7    1
    15     5     1    1
    16    24     6    1
    17    24    25    1
    18    26    33   ar
    19    28    29   ar
    20    30    31   ar
    21    32    25   ar
    22    32    27   ar
    23    15     9    1
    24     7     6   am
    25    33    27   ar
    26    18    19   ar
    27    20    23   ar
    28    21    22   ar
    29     9    13   ar
    30    10    11   ar
    31    12    14   ar
    32     6     8    2
    33    25    26   ar
    34    27    28   ar
    35    29    30   ar
    36    31    32   ar
    37    15    16    1
    38    33    34    1
@<TRIPOS>MOLECULE
MolPort-020-295-316 MCULE-3182182916 PubChem-110267398
 34 38 0 0 0
SMALL
GASTEIGER

@<TRIPOS>ATOM
      1 C          12.6861   38.9293   10.2019 C.3     1  UNL1        0.0603
      2 C          12.3382   37.4630    9.9322 C.3     1  UNL1        0.0094
      3 C          10.8466   37.3154    9.6400 C.3     1  UNL1        0.0219
      4 C          10.4613   38.1826    8.4459 C.3     1  UNL1        0.0934
      5 C          12.2737   39.8112    9.0221 C.3     1  UNL1        0.0993
      6 C           9.9288   40.6417    8.6539 C.2     1  UNL1        0.2301
      7 N          10.8734   39.5620    8.6929 N.am    1  UNL1       -0.2789
      8 O          10.2969   41.8144    8.9334 O.2     1  UNL1       -0.2745
      9 C          16.2219   40.0895    9.9788 C.ar    1  UNL1        0.2214
     10 C          16.0923   38.6029   11.8168 C.ar    1  UNL1        0.1031
     11 C          14.7331   38.4110   11.5804 C.ar    1  UNL1        0.0356
     12 C          14.1404   39.0905   10.5104 C.ar    1  UNL1        0.0647
     13 N          16.8094   39.4337   11.0170 N.ar    1  UNL1       -0.2120
     14 N          14.8962   39.9125    9.7359 N.ar    1  UNL1       -0.2179
     15 N          16.9759   40.9671    9.1340 N.pl3   1  UNL1       -0.2680
     16 H          17.9534   40.8502    9.1315 H       1  UNL1        0.1565
     17 C          14.8542   45.0529    5.7812 C.3     1  UNL1        0.0327
     18 C          15.3993   43.9820    6.6551 C.ar    1  UNL1       -0.0026
     19 C          16.6700   44.1102    7.2183 C.ar    1  UNL1        0.0960
     20 C          16.4460   41.9984    8.2924 C.ar    1  UNL1        0.1343
     21 C          15.1703   41.8389    7.7440 C.ar    1  UNL1        0.0342
     22 C          14.6466   42.8378    6.9214 C.ar    1  UNL1        0.0001
     23 N          17.1620   43.1254    8.0174 N.ar    1  UNL1       -0.2293
     24 C           8.5050   40.4048    8.2619 C.3     1  UNL1        0.1131
     25 C           7.9505   41.6008    7.5612 C.ar    1  UNL1        0.0053
     26 C           8.3839   42.1181    6.3452 C.ar    1  UNL1        0.0685
     27 C           6.7145   43.3166    6.9754 C.ar    1  UNL1        0.0563
     28 C           5.7042   44.2733    7.0536 C.ar    1  UNL1        0.0170
     29 C           4.8540   44.2355    8.1741 C.ar    1  UNL1        0.0015
     30 C           5.0299   43.2562    9.1761 C.ar    1  UNL1        0.0001
     31 C           6.0583   42.3029    9.0703 C.ar    1  UNL1        0.0012
     32 C           6.8820   42.3694    7.9482 C.ar    1  UNL1        0.0135
     33 N           7.6196   43.1820    5.9889 N.ar    1  UNL1       -0.3522
     34 H           7.7086   43.7370    5.1806 H       1  UNL1        0.1660
@<TRIPOS>BOND
     1    17    18    1
     2    19    23   ar
     3    20    21   ar
     4    20    15    1
     5    22    18   ar
     6     9    14   ar
     7    10    13   ar
     8    11    12   ar
     9     1    12    1
    10     1     2    1
    11     2     3    1
    12     3     4    1
    13     4     7    1
    14     5     7    1
    15     5     1    1
    16    24     6    1
    17    24    25    1
    18    26    33   ar
    19    28    29   ar
    20    30    31   ar
    21    32    25   ar
    22    32    27   ar
    23    15     9    1
    24     7     6   am
    25    33    27   ar
    26    18    19   ar
    27    20    23   ar
    28    21    22   ar
    29     9    13   ar
    30    10    11   ar
    31    12    14   ar
    32     6     8    2
    33    25    26   ar
    34    27    28   ar
    35    29    30   ar
    36    31    32   ar
    37    15    16    1
    38    33    34    1
