@<TRIPOS>MOLECULE
MolPort-019-918-975 13789330 CSSS03437095136 FBLDHJSKAPTCBK-UHFFFAOYSA-N MCULE-1365347121 PubChem-49698053 ZINC000013789330
 31 34 0 0 0
SMALL
GASTEIGER

@<TRIPOS>ATOM
      1 N          11.1683   35.5461   11.0646 N.am    1  UNL1       -0.2552
      2 C          11.7522   36.7378   10.5301 C.ar    1  UNL1        0.0543
      3 C          11.3720   38.0671   10.7159 C.ar    1  UNL1        0.0162
      4 C          12.1668   39.0675   10.1104 C.ar    1  UNL1        0.0159
      5 C          13.3129   38.7407    9.3387 C.ar    1  UNL1        0.0503
      6 C          13.6921   37.3797    9.2111 C.ar    1  UNL1        0.0148
      7 C          14.8608   36.8982    8.5865 C.ar    1  UNL1        0.0013
      8 C          15.1442   35.5078    8.5845 C.ar    1  UNL1        0.0002
      9 C          14.2767   34.5859    9.2158 C.ar    1  UNL1        0.0046
     10 C          13.1300   35.0973    9.8222 C.ar    1  UNL1        0.0551
     11 C          12.8714   36.4365    9.8076 C.ar    1  UNL1        0.0193
     12 C          12.0621   34.5094   10.6282 C.2     1  UNL1        0.2528
     13 O          11.9515   33.2941   10.9388 O.2     1  UNL1       -0.2696
     14 N          14.0850   39.8107    8.7789 N.am    1  UNL1       -0.2839
     15 C          15.2490   40.3932    9.3788 C.2     1  UNL1        0.2257
     16 O          15.8485   39.8071   10.3189 O.2     1  UNL1       -0.2748
     17 H          13.7922   40.1748    7.9124 H       1  UNL1        0.1549
     18 N          17.2799   43.0660    6.7929 N.3     1  UNL1       -0.1594
     19 C          15.7994   41.6756    8.8528 C.3     1  UNL1        0.0797
     20 C          15.1876   42.0017    7.4916 C.3     1  UNL1        0.0283
     21 C          15.8362   43.2641    6.9300 C.3     1  UNL1        0.0959
     22 C          17.8537   42.8902    8.1279 C.3     1  UNL1        0.0959
     23 C          17.3225   41.6060    8.7592 C.3     1  UNL1        0.0283
     24 C          19.3858   45.0046    7.0461 C.3     1  UNL1        0.1960
     25 O          16.9321   45.6278    6.1636 O.2     1  UNL1       -0.1572
     26 O          18.3517   44.2729    4.6928 O.2     1  UNL1       -0.1572
     27 S          17.9474   44.5189    6.1194 S.O2    1  UNL1        0.0457
     28 C          10.1985   35.4587   12.1491 C.3     1  UNL1        0.0985
     29 C          10.4612   34.2331   13.0113 C.3     1  UNL1        0.0219
     30 C           9.5349   34.2163   14.2117 C.3     1  UNL1        0.0018
     31 C           9.9169   33.0737   15.1279 C.3     1  UNL1        0.0001
@<TRIPOS>BOND
     1     1     2    1
     2    14    15   am
     3    28     1    1
     4    28    29    1
     5    29    30    1
     6    30    31    1
     7     3     4   ar
     8     5     6   ar
     9     5    14    1
    10     7     8   ar
    11     9    10   ar
    12    10    12    1
    13    11     2   ar
    14    11     6   ar
    15    12     1   am
    16    19    15    1
    17    19    20    1
    18    20    21    1
    19    21    18    1
    20    22    18    1
    21    22    23    1
    22    23    19    1
    23    27    18    1
    24    27    24    1
    25     2     3   ar
    26     4     5   ar
    27     6     7   ar
    28     8     9   ar
    29    10    11   ar
    30    12    13    2
    31    15    16    2
    32    27    25    2
    33    27    26    2
    34    14    17    1
@<TRIPOS>MOLECULE
MolPort-019-918-975 13789330 CSSS03437095136 FBLDHJSKAPTCBK-UHFFFAOYSA-N MCULE-1365347121 PubChem-49698053 ZINC000013789330
 31 34 0 0 0
SMALL
GASTEIGER

@<TRIPOS>ATOM
      1 N          14.1633   38.7336    9.9413 N.am    1  UNL1       -0.2552
      2 C          12.8960   39.3567    9.7131 C.ar    1  UNL1        0.0543
      3 C          12.1818   40.2309   10.5327 C.ar    1  UNL1        0.0162
      4 C          10.9651   40.7510   10.0344 C.ar    1  UNL1        0.0159
      5 C          10.4792   40.4018    8.7469 C.ar    1  UNL1        0.0503
      6 C          11.2571   39.5455    7.9261 C.ar    1  UNL1        0.0148
      7 C          10.9796   39.2007    6.5874 C.ar    1  UNL1        0.0013
      8 C          11.8809   38.3772    5.8642 C.ar    1  UNL1        0.0002
      9 C          13.0725   37.9018    6.4599 C.ar    1  UNL1        0.0046
     10 C          13.3138   38.2615    7.7853 C.ar    1  UNL1        0.0551
     11 C          12.4319   39.0484    8.4661 C.ar    1  UNL1        0.0193
     12 C          14.4324   38.0565    8.7031 C.2     1  UNL1        0.2528
     13 O          15.4928   37.4263    8.4500 O.2     1  UNL1       -0.2696
     14 N           9.2516   40.9910    8.2991 N.am    1  UNL1       -0.2839
     15 C           9.1431   42.0460    7.3352 C.2     1  UNL1        0.2257
     16 O          10.1177   42.3407    6.5934 O.2     1  UNL1       -0.2748
     17 H           8.4154   40.6428    8.6849 H       1  UNL1        0.1549
     18 N           5.3657   43.6996    8.3106 N.3     1  UNL1       -0.1594
     19 C           7.8502   42.7679    7.1586 C.3     1  UNL1        0.0797
     20 C           7.7872   43.9850    8.0796 C.3     1  UNL1        0.0283
     21 C           6.4194   44.6504    7.9529 C.3     1  UNL1        0.0959
     22 C           5.3667   42.6137    7.3291 C.3     1  UNL1        0.0959
     23 C           6.6733   41.8298    7.4196 C.3     1  UNL1        0.0283
     24 C           3.3352   44.5789    6.4774 C.3     1  UNL1        0.1960
     25 O           3.9712   45.9313    8.7031 O.2     1  UNL1       -0.1572
     26 O           2.8034   43.7921    8.9755 O.2     1  UNL1       -0.1572
     27 S           3.8461   44.5266    8.1802 S.O2    1  UNL1        0.0457
     28 C          15.1338   39.0789   10.9725 C.3     1  UNL1        0.0985
     29 C          14.4957   39.0314   12.3527 C.3     1  UNL1        0.0219
     30 C          12.9933   39.2102   12.2529 C.3     1  UNL1        0.0018
     31 C          12.4913   39.9526   13.4725 C.3     1  UNL1        0.0001
@<TRIPOS>BOND
     1     1     2    1
     2    14    15   am
     3    28     1    1
     4    28    29    1
     5    29    30    1
     6    30    31    1
     7     3     4   ar
     8     5     6   ar
     9     5    14    1
    10     7     8   ar
    11     9    10   ar
    12    10    12    1
    13    11     2   ar
    14    11     6   ar
    15    12     1   am
    16    19    15    1
    17    19    20    1
    18    20    21    1
    19    21    18    1
    20    22    18    1
    21    22    23    1
    22    23    19    1
    23    27    18    1
    24    27    24    1
    25     2     3   ar
    26     4     5   ar
    27     6     7   ar
    28     8     9   ar
    29    10    11   ar
    30    12    13    2
    31    15    16    2
    32    27    25    2
    33    27    26    2
    34    14    17    1
@<TRIPOS>MOLECULE
MolPort-019-918-975 13789330 CSSS03437095136 FBLDHJSKAPTCBK-UHFFFAOYSA-N MCULE-1365347121 PubChem-49698053 ZINC000013789330
 31 34 0 0 0
SMALL
GASTEIGER

@<TRIPOS>ATOM
      1 N          10.6311   38.5057    3.7014 N.am    1  UNL1       -0.2552
      2 C          10.5189   38.8612    5.0825 C.ar    1  UNL1        0.0543
      3 C          11.5076   38.9057    6.0656 C.ar    1  UNL1        0.0162
      4 C          11.1323   39.3519    7.3537 C.ar    1  UNL1        0.0159
      5 C           9.7991   39.7427    7.6460 C.ar    1  UNL1        0.0503
      6 C           8.8331   39.7260    6.6073 C.ar    1  UNL1        0.0148
      7 C           7.5063   40.1940    6.6994 C.ar    1  UNL1        0.0013
      8 C           6.6637   40.1707    5.5579 C.ar    1  UNL1        0.0002
      9 C           7.1367   39.6963    4.3120 C.ar    1  UNL1        0.0046
     10 C           8.4531   39.2402    4.2582 C.ar    1  UNL1        0.0551
     11 C           9.2456   39.2643    5.3681 C.ar    1  UNL1        0.0193
     12 C           9.3191   38.7698    3.1790 C.2     1  UNL1        0.2528
     13 O           8.9958   38.6512    1.9678 O.2     1  UNL1       -0.2696
     14 N           9.5003   40.2102    8.9676 N.am    1  UNL1       -0.2839
     15 C           9.7962   41.5199    9.4688 C.2     1  UNL1        0.2257
     16 O          10.0895   42.4578    8.6807 O.2     1  UNL1       -0.2748
     17 H           9.0559   39.5809    9.5805 H       1  UNL1        0.1549
     18 N           9.1049   40.8436   13.5943 N.3     1  UNL1       -0.1594
     19 C           9.7001   41.8010   10.9302 C.3     1  UNL1        0.0797
     20 C          10.6683   40.9134   11.7102 C.3     1  UNL1        0.0283
     21 C          10.4830   41.1486   13.2069 C.3     1  UNL1        0.0959
     22 C           8.2141   41.7986   12.9333 C.3     1  UNL1        0.0959
     23 C           8.2674   41.6012   11.4207 C.3     1  UNL1        0.0283
     24 C           7.9257   39.8473   16.0178 C.3     1  UNL1        0.1960
     25 O           8.3874   42.4530   15.5878 O.2     1  UNL1       -0.1572
     26 O          10.3342   41.0027   15.9351 O.2     1  UNL1       -0.1572
     27 S           8.9725   41.0965   15.3056 S.O2    1  UNL1        0.0457
     28 C          11.8612   38.3651    2.9323 C.3     1  UNL1        0.0985
     29 C          12.7755   37.3241    3.5609 C.3     1  UNL1        0.0219
     30 C          12.0360   36.0157    3.7617 C.3     1  UNL1        0.0018
     31 C          10.7376   36.0454    2.9845 C.3     1  UNL1        0.0001
@<TRIPOS>BOND
     1     1     2    1
     2    14    15   am
     3    28     1    1
     4    28    29    1
     5    29    30    1
     6    30    31    1
     7     3     4   ar
     8     5     6   ar
     9     5    14    1
    10     7     8   ar
    11     9    10   ar
    12    10    12    1
    13    11     2   ar
    14    11     6   ar
    15    12     1   am
    16    19    15    1
    17    19    20    1
    18    20    21    1
    19    21    18    1
    20    22    18    1
    21    22    23    1
    22    23    19    1
    23    27    18    1
    24    27    24    1
    25     2     3   ar
    26     4     5   ar
    27     6     7   ar
    28     8     9   ar
    29    10    11   ar
    30    12    13    2
    31    15    16    2
    32    27    25    2
    33    27    26    2
    34    14    17    1
@<TRIPOS>MOLECULE
MolPort-019-918-975 13789330 CSSS03437095136 FBLDHJSKAPTCBK-UHFFFAOYSA-N MCULE-1365347121 PubChem-49698053 ZINC000013789330
 31 34 0 0 0
SMALL
GASTEIGER

@<TRIPOS>ATOM
      1 N          10.4591   40.4644   14.2249 N.am    1  UNL1       -0.2552
      2 C          10.7242   40.3618   12.8229 C.ar    1  UNL1        0.0543
      3 C          11.7204   39.6416   12.1633 C.ar    1  UNL1        0.0162
      4 C          11.7223   39.6683   10.7497 C.ar    1  UNL1        0.0159
      5 C          10.7492   40.3992   10.0185 C.ar    1  UNL1        0.0503
      6 C           9.7259   41.0816   10.7252 C.ar    1  UNL1        0.0148
      7 C           8.6231   41.7478   10.1524 C.ar    1  UNL1        0.0013
      8 C           7.6392   42.3397   10.9860 C.ar    1  UNL1        0.0002
      9 C           7.7346   42.2618   12.3952 C.ar    1  UNL1        0.0046
     10 C           8.8387   41.5967   12.9266 C.ar    1  UNL1        0.0551
     11 C           9.7778   41.0400   12.1088 C.ar    1  UNL1        0.0193
     12 C           9.2466   41.2330   14.2820 C.2     1  UNL1        0.2528
     13 O           8.6222   41.5036   15.3415 O.2     1  UNL1       -0.2696
     14 N          10.7987   40.3563    8.5866 N.am    1  UNL1       -0.2839
     15 C           9.9808   41.1374    7.7064 C.2     1  UNL1        0.2257
     16 O           9.3482   42.1381    8.1368 O.2     1  UNL1       -0.2748
     17 H          11.4470   39.7405    8.1746 H       1  UNL1        0.1549
     18 N           9.7346   38.7933    4.1851 N.3     1  UNL1       -0.1594
     19 C           9.9185   40.8073    6.2534 C.3     1  UNL1        0.0797
     20 C           8.6056   40.1005    5.9214 C.3     1  UNL1        0.0283
     21 C           8.6064   39.6864    4.4523 C.3     1  UNL1        0.0959
     22 C          10.9769   39.5416    4.3829 C.3     1  UNL1        0.0959
     23 C          11.1140   39.9472    5.8481 C.3     1  UNL1        0.0283
     24 C          10.3253   39.6348    1.5019 C.3     1  UNL1        0.1960
     25 O           8.2302   38.0769    2.1108 O.2     1  UNL1       -0.1572
     26 O          10.4662   37.0868    2.2960 O.2     1  UNL1       -0.1572
     27 S           9.6562   38.3341    2.5139 S.O2    1  UNL1        0.0457
     28 C          11.0052   39.6220   15.2815 C.3     1  UNL1        0.0985
     29 C          10.3066   39.8944   16.6052 C.3     1  UNL1        0.0219
     30 C          10.8314   38.9695   17.6862 C.3     1  UNL1        0.0018
     31 C          10.1991   39.3333   19.0123 C.3     1  UNL1        0.0001
@<TRIPOS>BOND
     1     1     2    1
     2    14    15   am
     3    28     1    1
     4    28    29    1
     5    29    30    1
     6    30    31    1
     7     3     4   ar
     8     5     6   ar
     9     5    14    1
    10     7     8   ar
    11     9    10   ar
    12    10    12    1
    13    11     2   ar
    14    11     6   ar
    15    12     1   am
    16    19    15    1
    17    19    20    1
    18    20    21    1
    19    21    18    1
    20    22    18    1
    21    22    23    1
    22    23    19    1
    23    27    18    1
    24    27    24    1
    25     2     3   ar
    26     4     5   ar
    27     6     7   ar
    28     8     9   ar
    29    10    11   ar
    30    12    13    2
    31    15    16    2
    32    27    25    2
    33    27    26    2
    34    14    17    1
@<TRIPOS>MOLECULE
MolPort-019-918-975 13789330 CSSS03437095136 FBLDHJSKAPTCBK-UHFFFAOYSA-N MCULE-1365347121 PubChem-49698053 ZINC000013789330
 31 34 0 0 0
SMALL
GASTEIGER

@<TRIPOS>ATOM
      1 N          16.8425   43.7554    5.9001 N.am    1  UNL1       -0.2552
      2 C          16.5090   42.7213    6.8306 C.ar    1  UNL1        0.0543
      3 C          17.3337   42.0402    7.7263 C.ar    1  UNL1        0.0162
      4 C          16.7294   41.0917    8.5832 C.ar    1  UNL1        0.0159
      5 C          15.3337   40.8344    8.5409 C.ar    1  UNL1        0.0503
      6 C          14.5227   41.5802    7.6475 C.ar    1  UNL1        0.0148
      7 C          13.1157   41.5339    7.5673 C.ar    1  UNL1        0.0013
      8 C          12.4272   42.3831    6.6627 C.ar    1  UNL1        0.0002
      9 C          13.1294   43.2958    5.8412 C.ar    1  UNL1        0.0046
     10 C          14.5196   43.3134    5.9461 C.ar    1  UNL1        0.0551
     11 C          15.1640   42.4844    6.8169 C.ar    1  UNL1        0.0193
     12 C          15.5697   44.1419    5.3573 C.2     1  UNL1        0.2528
     13 O          15.3994   45.0809    4.5358 O.2     1  UNL1       -0.2696
     14 N          14.7890   39.8786    9.4597 N.am    1  UNL1       -0.2839
     15 C          15.1842   38.5043    9.5556 C.2     1  UNL1        0.2257
     16 O          16.2534   38.1050    9.0224 O.2     1  UNL1       -0.2748
     17 H          14.0867   40.1914   10.0747 H       1  UNL1        0.1549
     18 N          11.8935   36.0573   10.6222 N.3     1  UNL1       -0.1594
     19 C          14.3603   37.5421   10.3425 C.3     1  UNL1        0.0797
     20 C          14.0671   36.2900    9.5178 C.3     1  UNL1        0.0283
     21 C          13.1435   35.3649   10.3058 C.3     1  UNL1        0.0959
     22 C          12.1943   37.1716   11.5223 C.3     1  UNL1        0.0959
     23 C          13.0626   38.2019   10.8051 C.3     1  UNL1        0.0283
     24 C          11.5179   34.6962   13.1249 C.3     1  UNL1        0.1960
     25 O          10.8320   33.6217   10.7663 O.2     1  UNL1       -0.1572
     26 O           9.4886   35.5033   11.5844 O.2     1  UNL1       -0.1572
     27 S          10.8797   34.9431   11.4831 S.O2    1  UNL1        0.0457
     28 C          18.0765   44.5300    5.8598 C.3     1  UNL1        0.0985
     29 C          18.3584   45.1680    7.2119 C.3     1  UNL1        0.0219
     30 C          18.5578   44.1036    8.2733 C.3     1  UNL1        0.0018
     31 C          17.6845   44.4143    9.4698 C.3     1  UNL1        0.0001
@<TRIPOS>BOND
     1     1     2    1
     2    14    15   am
     3    28     1    1
     4    28    29    1
     5    29    30    1
     6    30    31    1
     7     3     4   ar
     8     5     6   ar
     9     5    14    1
    10     7     8   ar
    11     9    10   ar
    12    10    12    1
    13    11     2   ar
    14    11     6   ar
    15    12     1   am
    16    19    15    1
    17    19    20    1
    18    20    21    1
    19    21    18    1
    20    22    18    1
    21    22    23    1
    22    23    19    1
    23    27    18    1
    24    27    24    1
    25     2     3   ar
    26     4     5   ar
    27     6     7   ar
    28     8     9   ar
    29    10    11   ar
    30    12    13    2
    31    15    16    2
    32    27    25    2
    33    27    26    2
    34    14    17    1
@<TRIPOS>MOLECULE
MolPort-019-918-975 13789330 CSSS03437095136 FBLDHJSKAPTCBK-UHFFFAOYSA-N MCULE-1365347121 PubChem-49698053 ZINC000013789330
 31 34 0 0 0
SMALL
GASTEIGER

@<TRIPOS>ATOM
      1 N          10.0855   41.7871   13.5382 N.am    1  UNL1       -0.2552
      2 C          10.4166   41.3450   12.2186 C.ar    1  UNL1        0.0543
      3 C          11.5738   40.7125   11.7639 C.ar    1  UNL1        0.0162
      4 C          11.6196   40.3268   10.4044 C.ar    1  UNL1        0.0159
      5 C          10.5316   40.5705    9.5254 C.ar    1  UNL1        0.0503
      6 C           9.3550   41.1755   10.0370 C.ar    1  UNL1        0.0148
      7 C           8.1501   41.3753    9.3326 C.ar    1  UNL1        0.0013
      8 C           7.0279   41.9421    9.9905 C.ar    1  UNL1        0.0002
      9 C           7.0886   42.3011   11.3574 C.ar    1  UNL1        0.0046
     10 C           8.2962   42.0906   12.0220 C.ar    1  UNL1        0.0551
     11 C           9.3660   41.5508   11.3703 C.ar    1  UNL1        0.0193
     12 C           8.7282   42.2400   13.4100 C.2     1  UNL1        0.2528
     13 O           8.0213   42.6563   14.3654 O.2     1  UNL1       -0.2696
     14 N          10.6404   40.1258    8.1670 N.am    1  UNL1       -0.2839
     15 C          10.4305   40.9438    7.0091 C.2     1  UNL1        0.2257
     16 O          10.4119   42.1997    7.1049 O.2     1  UNL1       -0.2748
     17 H          10.8785   39.1823    8.0175 H       1  UNL1        0.1549
     18 N           9.8977   37.9223    4.0865 N.3     1  UNL1       -0.1594
     19 C          10.2917   40.3148    5.6640 C.3     1  UNL1        0.0797
     20 C           8.9235   39.6501    5.5231 C.3     1  UNL1        0.0283
     21 C           8.8415   38.9313    4.1792 C.3     1  UNL1        0.0959
     22 C          11.1931   38.6037    4.0891 C.3     1  UNL1        0.0959
     23 C          11.4118   39.3035    5.4279 C.3     1  UNL1        0.0283
     24 C          10.4432   38.1217    1.2723 C.3     1  UNL1        0.1960
     25 O           8.2719   36.8901    2.2504 O.2     1  UNL1       -0.1572
     26 O          10.4415   35.8006    2.5970 O.2     1  UNL1       -0.1572
     27 S           9.7261   37.1219    2.5567 S.O2    1  UNL1        0.0457
     28 C          10.7722   41.4366   14.7752 C.3     1  UNL1        0.0985
     29 C          10.0388   40.3196   15.5025 C.3     1  UNL1        0.0219
     30 C           8.5501   40.3876   15.2226 C.3     1  UNL1        0.0018
     31 C           7.8433   39.2847   15.9808 C.3     1  UNL1        0.0001
@<TRIPOS>BOND
     1     1     2    1
     2    14    15   am
     3    28     1    1
     4    28    29    1
     5    29    30    1
     6    30    31    1
     7     3     4   ar
     8     5     6   ar
     9     5    14    1
    10     7     8   ar
    11     9    10   ar
    12    10    12    1
    13    11     2   ar
    14    11     6   ar
    15    12     1   am
    16    19    15    1
    17    19    20    1
    18    20    21    1
    19    21    18    1
    20    22    18    1
    21    22    23    1
    22    23    19    1
    23    27    18    1
    24    27    24    1
    25     2     3   ar
    26     4     5   ar
    27     6     7   ar
    28     8     9   ar
    29    10    11   ar
    30    12    13    2
    31    15    16    2
    32    27    25    2
    33    27    26    2
    34    14    17    1
@<TRIPOS>MOLECULE
MolPort-019-918-975 13789330 CSSS03437095136 FBLDHJSKAPTCBK-UHFFFAOYSA-N MCULE-1365347121 PubChem-49698053 ZINC000013789330
 31 34 0 0 0
SMALL
GASTEIGER

@<TRIPOS>ATOM
      1 N          16.1433   42.6562    6.9154 N.am    1  UNL1       -0.2552
      2 C          15.7735   41.5531    7.7478 C.ar    1  UNL1        0.0543
      3 C          16.5871   40.6872    8.4787 C.ar    1  UNL1        0.0162
      4 C          15.9526   39.7049    9.2734 C.ar    1  UNL1        0.0159
      5 C          14.5382   39.5957    9.3319 C.ar    1  UNL1        0.0503
      6 C          13.7453   40.5239    8.6094 C.ar    1  UNL1        0.0148
      7 C          12.3400   40.6289    8.6556 C.ar    1  UNL1        0.0013
      8 C          11.6791   41.6483    7.9226 C.ar    1  UNL1        0.0002
      9 C          12.4095   42.5811    7.1496 C.ar    1  UNL1        0.0046
     10 C          13.7971   42.4464    7.1261 C.ar    1  UNL1        0.0551
     11 C          14.4138   41.4555    7.8321 C.ar    1  UNL1        0.0193
     12 C          14.8815   43.2323    6.5413 C.2     1  UNL1        0.2528
     13 O          14.7506   44.2783    5.8525 O.2     1  UNL1       -0.2696
     14 N          13.9668   38.5926   10.1814 N.am    1  UNL1       -0.2839
     15 C          12.7646   37.8623    9.9070 C.2     1  UNL1        0.2257
     16 O          12.2708   37.8505    8.7482 O.2     1  UNL1       -0.2748
     17 H          14.4383   38.3887   11.0213 H       1  UNL1        0.1549
     18 N          10.8411   34.5885   11.7877 N.3     1  UNL1       -0.1594
     19 C          12.1170   37.0564   10.9818 C.3     1  UNL1        0.0797
     20 C          12.9117   35.7785   11.2444 C.3     1  UNL1        0.0283
     21 C          12.1791   34.9251   12.2762 C.3     1  UNL1        0.0959
     22 C          10.0630   35.8231   11.6754 C.3     1  UNL1        0.0959
     23 C          10.6725   36.7287   10.6084 C.3     1  UNL1        0.0283
     24 C          11.2195   33.2739   14.3147 C.3     1  UNL1        0.1960
     25 O           9.6472   32.2858   12.3809 O.2     1  UNL1       -0.1572
     26 O           8.8774   34.3039   13.5423 O.2     1  UNL1       -0.1572
     27 S          10.0795   33.5927   12.9871 S.O2    1  UNL1        0.0457
     28 C          17.4480   43.3025    6.8497 C.3     1  UNL1        0.0985
     29 C          17.3776   44.7192    7.3998 C.3     1  UNL1        0.0219
     30 C          18.5405   44.9872    8.3352 C.3     1  UNL1        0.0018
     31 C          18.0136   45.2923    9.7208 C.3     1  UNL1        0.0001
@<TRIPOS>BOND
     1     1     2    1
     2    14    15   am
     3    28     1    1
     4    28    29    1
     5    29    30    1
     6    30    31    1
     7     3     4   ar
     8     5     6   ar
     9     5    14    1
    10     7     8   ar
    11     9    10   ar
    12    10    12    1
    13    11     2   ar
    14    11     6   ar
    15    12     1   am
    16    19    15    1
    17    19    20    1
    18    20    21    1
    19    21    18    1
    20    22    18    1
    21    22    23    1
    22    23    19    1
    23    27    18    1
    24    27    24    1
    25     2     3   ar
    26     4     5   ar
    27     6     7   ar
    28     8     9   ar
    29    10    11   ar
    30    12    13    2
    31    15    16    2
    32    27    25    2
    33    27    26    2
    34    14    17    1
@<TRIPOS>MOLECULE
MolPort-019-918-975 13789330 CSSS03437095136 FBLDHJSKAPTCBK-UHFFFAOYSA-N MCULE-1365347121 PubChem-49698053 ZINC000013789330
 31 34 0 0 0
SMALL
GASTEIGER

@<TRIPOS>ATOM
      1 N           5.6212   41.2127    9.5533 N.am    1  UNL1       -0.2552
      2 C           6.8005   41.4015    8.7658 C.ar    1  UNL1        0.0543
      3 C           6.9265   41.5346    7.3828 C.ar    1  UNL1        0.0162
      4 C           8.2193   41.7714    6.8617 C.ar    1  UNL1        0.0159
      5 C           9.3551   41.8716    7.7077 C.ar    1  UNL1        0.0503
      6 C           9.1785   41.7756    9.1119 C.ar    1  UNL1        0.0148
      7 C          10.1751   41.9724   10.0897 C.ar    1  UNL1        0.0013
      8 C           9.8424   41.9034   11.4674 C.ar    1  UNL1        0.0002
      9 C           8.5142   41.6533   11.8851 C.ar    1  UNL1        0.0046
     10 C           7.5553   41.4624   10.8911 C.ar    1  UNL1        0.0551
     11 C           7.8960   41.5258    9.5719 C.ar    1  UNL1        0.0193
     12 C           6.1061   41.2742   10.9042 C.2     1  UNL1        0.2528
     13 O           5.3755   41.2174   11.9282 O.2     1  UNL1       -0.2696
     14 N          10.6292   42.1404    7.1086 N.am    1  UNL1       -0.2839
     15 C          11.6844   41.1847    6.9437 C.2     1  UNL1        0.2257
     16 O          11.4574   39.9511    7.0602 O.2     1  UNL1       -0.2748
     17 H          10.7927   43.0555    6.7843 H       1  UNL1        0.1549
     18 N          15.1628   43.6024    6.8426 N.3     1  UNL1       -0.1594
     19 C          13.0548   41.6402    6.5713 C.3     1  UNL1        0.0797
     20 C          13.9509   41.7049    7.8067 C.3     1  UNL1        0.0283
     21 C          15.3164   42.2653    7.4176 C.3     1  UNL1        0.0959
     22 C          14.4144   43.4866    5.5901 C.3     1  UNL1        0.0959
     23 C          12.9964   42.9974    5.8729 C.3     1  UNL1        0.0283
     24 C          17.7722   44.1571    7.9106 C.3     1  UNL1        0.1960
     25 O          16.6669   45.6043    5.9428 O.2     1  UNL1       -0.1572
     26 O          17.3695   43.3169    5.4057 O.2     1  UNL1       -0.1572
     27 S          16.7479   44.1931    6.4569 S.O2    1  UNL1        0.0457
     28 C           4.2415   41.3847    9.1159 C.3     1  UNL1        0.0985
     29 C           3.5269   42.4169    9.9753 C.3     1  UNL1        0.0219
     30 C           2.3829   41.7772   10.7376 C.3     1  UNL1        0.0018
     31 C           2.2338   42.4522   12.0840 C.3     1  UNL1        0.0001
@<TRIPOS>BOND
     1     1     2    1
     2    14    15   am
     3    28     1    1
     4    28    29    1
     5    29    30    1
     6    30    31    1
     7     3     4   ar
     8     5     6   ar
     9     5    14    1
    10     7     8   ar
    11     9    10   ar
    12    10    12    1
    13    11     2   ar
    14    11     6   ar
    15    12     1   am
    16    19    15    1
    17    19    20    1
    18    20    21    1
    19    21    18    1
    20    22    18    1
    21    22    23    1
    22    23    19    1
    23    27    18    1
    24    27    24    1
    25     2     3   ar
    26     4     5   ar
    27     6     7   ar
    28     8     9   ar
    29    10    11   ar
    30    12    13    2
    31    15    16    2
    32    27    25    2
    33    27    26    2
    34    14    17    1
@<TRIPOS>MOLECULE
MolPort-019-918-975 13789330 CSSS03437095136 FBLDHJSKAPTCBK-UHFFFAOYSA-N MCULE-1365347121 PubChem-49698053 ZINC000013789330
 31 34 0 0 0
SMALL
GASTEIGER

@<TRIPOS>ATOM
      1 N          16.3869   41.4015    8.7998 N.am    1  UNL1       -0.2552
      2 C          14.9763   41.5193    8.5925 C.ar    1  UNL1        0.0543
      3 C          14.2819   42.3063    7.6735 C.ar    1  UNL1        0.0162
      4 C          12.8733   42.1888    7.6415 C.ar    1  UNL1        0.0159
      5 C          12.1811   41.3041    8.5099 C.ar    1  UNL1        0.0503
      6 C          12.9267   40.4879    9.3987 C.ar    1  UNL1        0.0148
      7 C          12.4060   39.4784   10.2340 C.ar    1  UNL1        0.0013
      8 C          13.2799   38.6953   11.0319 C.ar    1  UNL1        0.0002
      9 C          14.6793   38.8985   10.9953 C.ar    1  UNL1        0.0046
     10 C          15.1587   39.9059   10.1591 C.ar    1  UNL1        0.0551
     11 C          14.3020   40.6527    9.4048 C.ar    1  UNL1        0.0193
     12 C          16.4960   40.3585    9.7817 C.2     1  UNL1        0.2528
     13 O          17.5845   39.8892   10.2066 O.2     1  UNL1       -0.2696
     14 N          10.7545   41.2190    8.3999 N.am    1  UNL1       -0.2839
     15 C           9.8205   42.0824    9.0605 C.2     1  UNL1        0.2257
     16 O          10.2006   43.1706    9.5686 O.2     1  UNL1       -0.2748
     17 H          10.3864   40.5103    7.8242 H       1  UNL1        0.1549
     18 N           5.6520   42.5195    9.6831 N.3     1  UNL1       -0.1594
     19 C           8.3725   41.7277    9.0999 C.3     1  UNL1        0.0797
     20 C           7.5735   42.6380    8.1690 C.3     1  UNL1        0.0283
     21 C           6.0860   42.3218    8.2994 C.3     1  UNL1        0.0959
     22 C           6.3372   41.5413   10.5294 C.3     1  UNL1        0.0959
     23 C           7.8394   41.8123   10.5288 C.3     1  UNL1        0.0283
     24 C           3.4402   42.0292   11.4506 C.3     1  UNL1        0.1960
     25 O           3.6475   40.8965    9.0295 O.2     1  UNL1       -0.1572
     26 O           3.1866   43.3037    9.1153 O.2     1  UNL1       -0.1572
     27 S           3.9523   42.1790    9.7539 S.O2    1  UNL1        0.0457
     28 C          17.4429   41.8764    7.9145 C.3     1  UNL1        0.0985
     29 C          17.7022   43.3599    8.1300 C.3     1  UNL1        0.0219
     30 C          17.8438   44.0758    6.8009 C.3     1  UNL1        0.0018
     31 C          16.4987   44.6266    6.3786 C.3     1  UNL1        0.0001
@<TRIPOS>BOND
     1     1     2    1
     2    14    15   am
     3    28     1    1
     4    28    29    1
     5    29    30    1
     6    30    31    1
     7     3     4   ar
     8     5     6   ar
     9     5    14    1
    10     7     8   ar
    11     9    10   ar
    12    10    12    1
    13    11     2   ar
    14    11     6   ar
    15    12     1   am
    16    19    15    1
    17    19    20    1
    18    20    21    1
    19    21    18    1
    20    22    18    1
    21    22    23    1
    22    23    19    1
    23    27    18    1
    24    27    24    1
    25     2     3   ar
    26     4     5   ar
    27     6     7   ar
    28     8     9   ar
    29    10    11   ar
    30    12    13    2
    31    15    16    2
    32    27    25    2
    33    27    26    2
    34    14    17    1
@<TRIPOS>MOLECULE
MolPort-019-918-975 13789330 CSSS03437095136 FBLDHJSKAPTCBK-UHFFFAOYSA-N MCULE-1365347121 PubChem-49698053 ZINC000013789330
 31 34 0 0 0
SMALL
GASTEIGER

@<TRIPOS>ATOM
      1 N           8.9935   41.4648   14.6226 N.am    1  UNL1       -0.2552
      2 C           9.0399   41.1760   13.2223 C.ar    1  UNL1        0.0543
      3 C           8.1260   41.5077   12.2218 C.ar    1  UNL1        0.0162
      4 C           8.4471   41.1449   10.8935 C.ar    1  UNL1        0.0159
      5 C           9.6542   40.4669   10.5791 C.ar    1  UNL1        0.0503
      6 C          10.5782   40.1876   11.6185 C.ar    1  UNL1        0.0148
      7 C          11.8653   39.6344   11.4594 C.ar    1  UNL1        0.0013
      8 C          12.7098   39.4637   12.5868 C.ar    1  UNL1        0.0002
      9 C          12.2887   39.8550   13.8793 C.ar    1  UNL1        0.0046
     10 C          11.0097   40.3971   13.9994 C.ar    1  UNL1        0.0551
     11 C          10.2099   40.5469   12.9047 C.ar    1  UNL1        0.0193
     12 C          10.2588   40.9860   15.1062 C.2     1  UNL1        0.2528
     13 O          10.6599   41.1040   16.2940 O.2     1  UNL1       -0.2696
     14 N           9.9236   40.1566    9.2059 N.am    1  UNL1       -0.2839
     15 C           8.9319   39.9968    8.1836 C.2     1  UNL1        0.2257
     16 O           7.7530   40.4025    8.3636 O.2     1  UNL1       -0.2748
     17 H          10.8658   40.0441    8.9438 H       1  UNL1        0.1549
     18 N          10.0230   39.7949    4.0941 N.3     1  UNL1       -0.1594
     19 C           9.3030   39.4006    6.8679 C.3     1  UNL1        0.0797
     20 C          10.6982   39.8592    6.4475 C.3     1  UNL1        0.0283
     21 C          11.0161   39.3164    5.0568 C.3     1  UNL1        0.0959
     22 C           8.7210   39.2280    4.4488 C.3     1  UNL1        0.0959
     23 C           8.2695   39.7658    5.8041 C.3     1  UNL1        0.0283
     24 C          10.7532   40.5211    1.4115 C.3     1  UNL1        0.1960
     25 O           9.3597   38.3053    1.9916 O.2     1  UNL1       -0.1572
     26 O          11.7206   38.3610    2.6527 O.2     1  UNL1       -0.1572
     27 S          10.4615   39.1733    2.5348 S.O2    1  UNL1        0.0457
     28 C           8.1085   42.4105   15.2909 C.3     1  UNL1        0.0985
     29 C           7.2031   41.6951   16.2825 C.3     1  UNL1        0.0219
     30 C           7.6466   41.9715   17.7060 C.3     1  UNL1        0.0018
     31 C           6.4654   42.4599   18.5166 C.3     1  UNL1        0.0001
@<TRIPOS>BOND
     1     1     2    1
     2    14    15   am
     3    28     1    1
     4    28    29    1
     5    29    30    1
     6    30    31    1
     7     3     4   ar
     8     5     6   ar
     9     5    14    1
    10     7     8   ar
    11     9    10   ar
    12    10    12    1
    13    11     2   ar
    14    11     6   ar
    15    12     1   am
    16    19    15    1
    17    19    20    1
    18    20    21    1
    19    21    18    1
    20    22    18    1
    21    22    23    1
    22    23    19    1
    23    27    18    1
    24    27    24    1
    25     2     3   ar
    26     4     5   ar
    27     6     7   ar
    28     8     9   ar
    29    10    11   ar
    30    12    13    2
    31    15    16    2
    32    27    25    2
    33    27    26    2
    34    14    17    1
