@<TRIPOS>MOLECULE
MolPort-028-889-922 ChemDiv-V030-3017 MCULE-1497383710 PubChem-83281344 ZINC000096275279
 32 34 0 0 0
SMALL
GASTEIGER

@<TRIPOS>ATOM
      1 C          10.5526   39.1725    5.5616 C.ar    1  UNL1        0.0504
      2 C          10.3990   39.1124    6.9643 C.ar    1  UNL1        0.0162
      3 C          11.1064   39.9861    7.8078 C.ar    1  UNL1        0.0185
      4 C          11.9630   40.9106    7.2102 C.ar    1  UNL1        0.0603
      5 C          13.3696   42.4937    6.8092 C.ar    1  UNL1        0.1142
      6 C          13.0140   41.9819    5.5569 C.ar    1  UNL1        0.0233
      7 C          12.1169   40.9756    5.8526 C.ar    1  UNL1        0.0186
      8 C          11.4287   40.1229    4.9941 C.ar    1  UNL1        0.0162
      9 N          12.7279   41.8356    7.8121 N.ar    1  UNL1       -0.3194
     10 C          10.2929   37.5123    3.6241 C.2     1  UNL1        0.2261
     11 O          11.4812   37.6345    3.2256 O.2     1  UNL1       -0.2748
     12 N           9.8061   38.2550    4.7508 N.am    1  UNL1       -0.2839
     13 H           8.8613   38.1208    4.9926 H       1  UNL1        0.1549
     14 C           9.9228   35.1796    2.9184 C.3     1  UNL1        0.0101
     15 C           9.3744   36.5931    2.8973 C.3     1  UNL1        0.0854
     16 C          14.3282   43.6032    6.9885 C.2     1  UNL1        0.2618
     17 O          14.0115   44.7632    6.6080 O.2     1  UNL1       -0.2686
     18 N          15.6063   43.3755    7.5881 N.am    1  UNL1       -0.2973
     19 H          15.8152   42.4734    7.9226 H       1  UNL1        0.1499
     20 C          16.6120   44.4190    7.7256 C.3     1  UNL1        0.1219
     21 C          17.8650   44.0524    6.9476 C.3     1  UNL1        0.1634
     22 C          18.0264   42.2302    8.1799 C.3     1  UNL1        0.1742
     23 O          17.9883   42.6660    6.8565 O.3     1  UNL1       -0.3493
     24 C          12.7884   42.1043    9.2466 C.3     1  UNL1        0.1325
     25 C          13.3644   40.9310    9.9790 C.ar    1  UNL1       -0.0039
     26 C          12.6123   40.2260   10.9389 C.ar    1  UNL1       -0.0240
     27 C          11.2050   40.6020   11.2581 C.3     1  UNL1        0.0308
     28 C          13.1849   39.1401   11.6092 C.ar    1  UNL1       -0.0048
     29 C          14.4974   38.7509   11.3296 C.ar    1  UNL1       -0.0046
     30 C          15.2434   39.4460   10.3752 C.ar    1  UNL1       -0.0221
     31 C          16.6388   39.0321   10.0761 C.3     1  UNL1        0.0310
     32 C          14.6781   40.5315    9.7023 C.ar    1  UNL1       -0.0070
@<TRIPOS>BOND
     1    14    15    1
     2    15    10    1
     3    10    12   am
     4     2     3   ar
     5     4     9   ar
     6    24     9    1
     7    24    25    1
     8    26    28   ar
     9    27    26    1
    10    29    30   ar
    11    31    30    1
    12    32    25   ar
    13     5    16    1
    14     6     7   ar
    15     7     4   ar
    16     8     1   ar
    17    16    18   am
    18    20    18    1
    19    20    21    1
    20    21    23    1
    21    22    23    1
    22    12     1    1
    23     9     5   ar
    24    10    11    2
    25     1     2   ar
    26     3     4   ar
    27    25    26   ar
    28    28    29   ar
    29    30    32   ar
    30     5     6   ar
    31     7     8   ar
    32    16    17    2
    33    12    13    1
    34    18    19    1
@<TRIPOS>MOLECULE
MolPort-028-889-922 ChemDiv-V030-3017 MCULE-1497383710 PubChem-83281344 ZINC000096275279
 32 34 0 0 0
SMALL
GASTEIGER

@<TRIPOS>ATOM
      1 C          10.8263   40.9040    8.1301 C.ar    1  UNL1        0.0504
      2 C          10.4321   39.7303    8.8096 C.ar    1  UNL1        0.0162
      3 C          11.3596   38.9757    9.5483 C.ar    1  UNL1        0.0185
      4 C          12.6788   39.4272    9.5844 C.ar    1  UNL1        0.0603
      5 C          14.7848   39.6843    9.9643 C.ar    1  UNL1        0.1142
      6 C          14.4164   40.7607    9.1506 C.ar    1  UNL1        0.0233
      7 C          13.0685   40.5631    8.9294 C.ar    1  UNL1        0.0186
      8 C          12.1710   41.3292    8.1911 C.ar    1  UNL1        0.0162
      9 N          13.7227   38.8745   10.2231 N.ar    1  UNL1       -0.3194
     10 C           8.7358   42.3764    7.9323 C.2     1  UNL1        0.2261
     11 O           8.5318   42.4307    9.1738 O.2     1  UNL1       -0.2748
     12 N           9.8367   41.6328    7.3911 N.am    1  UNL1       -0.2839
     13 H           9.9217   41.6215    6.4104 H       1  UNL1        0.1549
     14 C           6.5475   43.4975    7.7545 C.3     1  UNL1        0.0101
     15 C           7.8029   43.0832    7.0119 C.3     1  UNL1        0.0854
     16 C          16.1614   39.4759   10.4581 C.2     1  UNL1        0.2618
     17 O          16.3659   39.3744   11.6984 O.2     1  UNL1       -0.2686
     18 N          17.2595   39.3874    9.5464 N.am    1  UNL1       -0.2973
     19 H          17.0730   39.4202    8.5803 H       1  UNL1        0.1499
     20 C          18.6411   39.2509    9.9843 C.3     1  UNL1        0.1219
     21 C          19.1109   37.8155    9.8148 C.3     1  UNL1        0.1634
     22 C          19.5140   36.1429   11.1950 C.3     1  UNL1        0.1742
     23 O          18.4983   36.9924   10.7597 O.3     1  UNL1       -0.3493
     24 C          13.6843   37.6855   11.0707 C.3     1  UNL1        0.1325
     25 C          13.9997   36.4580   10.2715 C.ar    1  UNL1       -0.0039
     26 C          13.0914   35.3845   10.1893 C.ar    1  UNL1       -0.0240
     27 C          11.7690   35.4261   10.8774 C.3     1  UNL1        0.0308
     28 C          13.4222   34.2505    9.4403 C.ar    1  UNL1       -0.0048
     29 C          14.6475   34.1790    8.7725 C.ar    1  UNL1       -0.0046
     30 C          15.5477   35.2440    8.8494 C.ar    1  UNL1       -0.0221
     31 C          16.8503   35.1696    8.1384 C.3     1  UNL1        0.0310
     32 C          15.2240   36.3793    9.5956 C.ar    1  UNL1       -0.0070
@<TRIPOS>BOND
     1    14    15    1
     2    15    10    1
     3    10    12   am
     4     2     3   ar
     5     4     9   ar
     6    24     9    1
     7    24    25    1
     8    26    28   ar
     9    27    26    1
    10    29    30   ar
    11    31    30    1
    12    32    25   ar
    13     5    16    1
    14     6     7   ar
    15     7     4   ar
    16     8     1   ar
    17    16    18   am
    18    20    18    1
    19    20    21    1
    20    21    23    1
    21    22    23    1
    22    12     1    1
    23     9     5   ar
    24    10    11    2
    25     1     2   ar
    26     3     4   ar
    27    25    26   ar
    28    28    29   ar
    29    30    32   ar
    30     5     6   ar
    31     7     8   ar
    32    16    17    2
    33    12    13    1
    34    18    19    1
@<TRIPOS>MOLECULE
MolPort-028-889-922 ChemDiv-V030-3017 MCULE-1497383710 PubChem-83281344 ZINC000096275279
 32 34 0 0 0
SMALL
GASTEIGER

@<TRIPOS>ATOM
      1 C           9.5018   40.6354    9.3588 C.ar    1  UNL1        0.0504
      2 C          10.3717   41.6089    9.8978 C.ar    1  UNL1        0.0162
      3 C          11.7583   41.3870    9.9569 C.ar    1  UNL1        0.0185
      4 C          12.2411   40.1740    9.4661 C.ar    1  UNL1        0.0603
      5 C          13.4734   38.5169    8.8488 C.ar    1  UNL1        0.1142
      6 C          12.1617   38.1463    8.5345 C.ar    1  UNL1        0.0233
      7 C          11.4053   39.2263    8.9421 C.ar    1  UNL1        0.0186
      8 C          10.0287   39.4200    8.8711 C.ar    1  UNL1        0.0162
      9 N          13.5148   39.7519    9.4179 N.ar    1  UNL1       -0.3194
     10 C           7.4463   41.9616    8.5886 C.2     1  UNL1        0.2261
     11 O           8.1061   42.7743    7.8885 O.2     1  UNL1       -0.2748
     12 N           8.0959   40.9163    9.3256 N.am    1  UNL1       -0.2839
     13 H           7.5163   40.3309    9.8646 H       1  UNL1        0.1549
     14 C           5.4570   41.5808    9.9938 C.3     1  UNL1        0.0101
     15 C           5.9662   42.1043    8.6649 C.3     1  UNL1        0.0854
     16 C          14.6435   37.6530    8.5903 C.2     1  UNL1        0.2618
     17 O          15.7735   37.9903    9.0374 O.2     1  UNL1       -0.2686
     18 N          14.5070   36.4421    7.8421 N.am    1  UNL1       -0.2973
     19 H          13.6086   36.1718    7.5438 H       1  UNL1        0.1499
     20 C          15.6384   35.5914    7.5020 C.3     1  UNL1        0.1219
     21 C          15.7726   34.4612    8.5092 C.3     1  UNL1        0.1634
     22 C          17.4385   33.0477    8.8125 C.3     1  UNL1        0.1742
     23 O          17.0842   34.3856    8.9780 O.3     1  UNL1       -0.3493
     24 C          14.6913   40.5105    9.8350 C.3     1  UNL1        0.1325
     25 C          15.1621   41.4041    8.7283 C.ar    1  UNL1       -0.0039
     26 C          14.3209   41.7380    7.6490 C.ar    1  UNL1       -0.0240
     27 C          12.9200   41.2337    7.5657 C.3     1  UNL1        0.0308
     28 C          14.7963   42.5688    6.6290 C.ar    1  UNL1       -0.0048
     29 C          16.0998   43.0699    6.6773 C.ar    1  UNL1       -0.0046
     30 C          16.9340   42.7433    7.7487 C.ar    1  UNL1       -0.0221
     31 C          18.3198   43.2767    7.8017 C.3     1  UNL1        0.0310
     32 C          16.4660   41.9140    8.7704 C.ar    1  UNL1       -0.0070
@<TRIPOS>BOND
     1    14    15    1
     2    15    10    1
     3    10    12   am
     4     2     3   ar
     5     4     9   ar
     6    24     9    1
     7    24    25    1
     8    26    28   ar
     9    27    26    1
    10    29    30   ar
    11    31    30    1
    12    32    25   ar
    13     5    16    1
    14     6     7   ar
    15     7     4   ar
    16     8     1   ar
    17    16    18   am
    18    20    18    1
    19    20    21    1
    20    21    23    1
    21    22    23    1
    22    12     1    1
    23     9     5   ar
    24    10    11    2
    25     1     2   ar
    26     3     4   ar
    27    25    26   ar
    28    28    29   ar
    29    30    32   ar
    30     5     6   ar
    31     7     8   ar
    32    16    17    2
    33    12    13    1
    34    18    19    1
@<TRIPOS>MOLECULE
MolPort-028-889-922 ChemDiv-V030-3017 MCULE-1497383710 PubChem-83281344 ZINC000096275279
 32 34 0 0 0
SMALL
GASTEIGER

@<TRIPOS>ATOM
      1 C           9.7771   40.7554    9.3273 C.ar    1  UNL1        0.0504
      2 C          10.7176   41.7549    9.6608 C.ar    1  UNL1        0.0162
      3 C          12.0956   41.4786    9.6675 C.ar    1  UNL1        0.0185
      4 C          12.4980   40.1853    9.3347 C.ar    1  UNL1        0.0603
      5 C          13.6224   38.3992    8.8976 C.ar    1  UNL1        0.1142
      6 C          12.2794   38.0491    8.7228 C.ar    1  UNL1        0.0233
      7 C          11.5936   39.2118    9.0100 C.ar    1  UNL1        0.0186
      8 C          10.2237   39.4580    8.9951 C.ar    1  UNL1        0.0162
      9 N          13.7487   39.7009    9.2723 N.ar    1  UNL1       -0.3194
     10 C           7.6514   41.6809   10.4235 C.2     1  UNL1        0.2261
     11 O           8.2079   41.9380   11.5235 O.2     1  UNL1       -0.2748
     12 N           8.3839   41.0946    9.3383 N.am    1  UNL1       -0.2839
     13 H           7.8774   40.9056    8.5156 H       1  UNL1        0.1549
     14 C           5.3743   41.0311   11.1088 C.3     1  UNL1        0.0101
     15 C           6.2012   41.9749   10.2576 C.3     1  UNL1        0.0854
     16 C          14.7388   37.4522    8.7000 C.2     1  UNL1        0.2618
     17 O          15.9083   37.7974    9.0221 O.2     1  UNL1       -0.2686
     18 N          14.5066   36.1527    8.1503 N.am    1  UNL1       -0.2973
     19 H          13.5806   35.8846    7.9510 H       1  UNL1        0.1499
     20 C          15.5796   35.2088    7.8726 C.3     1  UNL1        0.1219
     21 C          15.3005   33.8763    8.5481 C.3     1  UNL1        0.1634
     22 C          14.6656   31.8442    7.9714 C.3     1  UNL1        0.1742
     23 O          15.6158   32.8240    7.6885 O.3     1  UNL1       -0.3493
     24 C          14.9785   40.4557    9.4989 C.3     1  UNL1        0.1325
     25 C          15.1912   41.4576    8.4053 C.ar    1  UNL1       -0.0039
     26 C          16.4317   42.1027    8.2345 C.ar    1  UNL1       -0.0240
     27 C          17.5942   41.8069    9.1205 C.3     1  UNL1        0.0308
     28 C          16.5923   43.0386    7.2075 C.ar    1  UNL1       -0.0048
     29 C          15.5294   43.3344    6.3501 C.ar    1  UNL1       -0.0046
     30 C          14.2999   42.6929    6.5152 C.ar    1  UNL1       -0.0221
     31 C          13.1694   43.0057    5.6032 C.3     1  UNL1        0.0310
     32 C          14.1324   41.7575    7.5388 C.ar    1  UNL1       -0.0070
@<TRIPOS>BOND
     1    14    15    1
     2    15    10    1
     3    10    12   am
     4     2     3   ar
     5     4     9   ar
     6    24     9    1
     7    24    25    1
     8    26    28   ar
     9    27    26    1
    10    29    30   ar
    11    31    30    1
    12    32    25   ar
    13     5    16    1
    14     6     7   ar
    15     7     4   ar
    16     8     1   ar
    17    16    18   am
    18    20    18    1
    19    20    21    1
    20    21    23    1
    21    22    23    1
    22    12     1    1
    23     9     5   ar
    24    10    11    2
    25     1     2   ar
    26     3     4   ar
    27    25    26   ar
    28    28    29   ar
    29    30    32   ar
    30     5     6   ar
    31     7     8   ar
    32    16    17    2
    33    12    13    1
    34    18    19    1
@<TRIPOS>MOLECULE
MolPort-028-889-922 ChemDiv-V030-3017 MCULE-1497383710 PubChem-83281344 ZINC000096275279
 32 34 0 0 0
SMALL
GASTEIGER

@<TRIPOS>ATOM
      1 C          14.6329   37.8559    9.4897 C.ar    1  UNL1        0.0504
      2 C          14.3460   38.1988    8.1499 C.ar    1  UNL1        0.0162
      3 C          13.3843   39.1768    7.8433 C.ar    1  UNL1        0.0185
      4 C          12.7260   39.7931    8.9074 C.ar    1  UNL1        0.0603
      5 C          11.4629   41.0250   10.1454 C.ar    1  UNL1        0.1142
      6 C          12.2054   40.2387   11.0325 C.ar    1  UNL1        0.0233
      7 C          12.9984   39.4670   10.2076 C.ar    1  UNL1        0.0186
      8 C          13.9458   38.5028   10.5396 C.ar    1  UNL1        0.0162
      9 N          11.7829   40.7473    8.8526 N.ar    1  UNL1       -0.3194
     10 C          17.0458   37.0315    9.7649 C.2     1  UNL1        0.2261
     11 O          17.5644   38.1546    9.5293 O.2     1  UNL1       -0.2748
     12 N          15.6230   36.8497    9.7422 N.am    1  UNL1       -0.2839
     13 H          15.2918   35.9395    9.9183 H       1  UNL1        0.1549
     14 C          19.1755   36.3279   10.7876 C.3     1  UNL1        0.0101
     15 C          17.9308   35.8694   10.0530 C.3     1  UNL1        0.0854
     16 C          10.4608   42.0170   10.5859 C.2     1  UNL1        0.2618
     17 O          10.7788   43.2362   10.6412 O.2     1  UNL1       -0.2686
     18 N           9.1387   41.6095   10.9475 N.am    1  UNL1       -0.2973
     19 H           8.8957   40.6604   10.8509 H       1  UNL1        0.1499
     20 C           8.1362   42.5366   11.4522 C.3     1  UNL1        0.1219
     21 C           7.8684   42.2764   12.9254 C.3     1  UNL1        0.1634
     22 C           9.1792   41.2220   14.3519 C.3     1  UNL1        0.1742
     23 O           8.3156   41.0036   13.2798 O.3     1  UNL1       -0.3493
     24 C          11.2721   41.3869    7.6428 C.3     1  UNL1        0.1325
     25 C           9.9731   40.7668    7.2269 C.ar    1  UNL1       -0.0039
     26 C           9.9068   39.8564    6.1541 C.ar    1  UNL1       -0.0240
     27 C          11.1256   39.4541    5.3949 C.3     1  UNL1        0.0308
     28 C           8.6755   39.3027    5.7881 C.ar    1  UNL1       -0.0048
     29 C           7.5129   39.6470    6.4826 C.ar    1  UNL1       -0.0046
     30 C           7.5772   40.5463    7.5492 C.ar    1  UNL1       -0.0221
     31 C           6.3417   40.9119    8.2892 C.3     1  UNL1        0.0310
     32 C           8.8032   41.1032    7.9199 C.ar    1  UNL1       -0.0070
@<TRIPOS>BOND
     1    14    15    1
     2    15    10    1
     3    10    12   am
     4     2     3   ar
     5     4     9   ar
     6    24     9    1
     7    24    25    1
     8    26    28   ar
     9    27    26    1
    10    29    30   ar
    11    31    30    1
    12    32    25   ar
    13     5    16    1
    14     6     7   ar
    15     7     4   ar
    16     8     1   ar
    17    16    18   am
    18    20    18    1
    19    20    21    1
    20    21    23    1
    21    22    23    1
    22    12     1    1
    23     9     5   ar
    24    10    11    2
    25     1     2   ar
    26     3     4   ar
    27    25    26   ar
    28    28    29   ar
    29    30    32   ar
    30     5     6   ar
    31     7     8   ar
    32    16    17    2
    33    12    13    1
    34    18    19    1
@<TRIPOS>MOLECULE
MolPort-028-889-922 ChemDiv-V030-3017 MCULE-1497383710 PubChem-83281344 ZINC000096275279
 32 34 0 0 0
SMALL
GASTEIGER

@<TRIPOS>ATOM
      1 C           9.6500   42.1596    8.9470 C.ar    1  UNL1        0.0504
      2 C          10.4848   42.2192    7.8092 C.ar    1  UNL1        0.0162
      3 C          11.7614   41.6313    7.8168 C.ar    1  UNL1        0.0185
      4 C          12.1718   40.9902    8.9856 C.ar    1  UNL1        0.0603
      5 C          13.2568   39.8958   10.4924 C.ar    1  UNL1        0.1142
      6 C          12.0331   40.2315   11.0810 C.ar    1  UNL1        0.0233
      7 C          11.3691   40.9277   10.0915 C.ar    1  UNL1        0.0186
      8 C          10.1008   41.5008   10.1113 C.ar    1  UNL1        0.0162
      9 N          13.3360   40.3626    9.2170 N.ar    1  UNL1       -0.3194
     10 C           7.1151   42.1393    8.5587 C.2     1  UNL1        0.2261
     11 O           7.0663   40.9145    8.2698 O.2     1  UNL1       -0.2748
     12 N           8.3580   42.7784    8.8817 N.am    1  UNL1       -0.2839
     13 H           8.3201   43.7421    9.0792 H       1  UNL1        0.1549
     14 C           6.0158   44.1448    7.6387 C.3     1  UNL1        0.0101
     15 C           5.8592   42.9389    8.5445 C.3     1  UNL1        0.0854
     16 C          14.3121   39.1365   11.1939 C.2     1  UNL1        0.2618
     17 O          14.4208   39.2394   12.4462 O.2     1  UNL1       -0.2686
     18 N          15.2070   38.2885   10.4695 N.am    1  UNL1       -0.2973
     19 H          15.0748   38.1840    9.4995 H       1  UNL1        0.1499
     20 C          16.3050   37.5731   11.1033 C.3     1  UNL1        0.1219
     21 C          17.3135   37.1198   10.0606 C.3     1  UNL1        0.1634
     22 C          16.5410   35.6294    8.6299 C.3     1  UNL1        0.1742
     23 O          16.6990   37.0020    8.8139 O.3     1  UNL1       -0.3493
     24 C          14.4207   40.1751    8.2568 C.3     1  UNL1        0.1325
     25 C          15.1072   41.4769    7.9761 C.ar    1  UNL1       -0.0039
     26 C          16.3223   41.8140    8.6037 C.ar    1  UNL1       -0.0240
     27 C          16.9903   40.8863    9.5613 C.3     1  UNL1        0.0308
     28 C          16.9315   43.0417    8.3238 C.ar    1  UNL1       -0.0048
     29 C          16.3415   43.9329    7.4238 C.ar    1  UNL1       -0.0046
     30 C          15.1388   43.5988    6.7974 C.ar    1  UNL1       -0.0221
     31 C          14.5113   44.5452    5.8391 C.3     1  UNL1        0.0310
     32 C          14.5249   42.3748    7.0724 C.ar    1  UNL1       -0.0070
@<TRIPOS>BOND
     1    14    15    1
     2    15    10    1
     3    10    12   am
     4     2     3   ar
     5     4     9   ar
     6    24     9    1
     7    24    25    1
     8    26    28   ar
     9    27    26    1
    10    29    30   ar
    11    31    30    1
    12    32    25   ar
    13     5    16    1
    14     6     7   ar
    15     7     4   ar
    16     8     1   ar
    17    16    18   am
    18    20    18    1
    19    20    21    1
    20    21    23    1
    21    22    23    1
    22    12     1    1
    23     9     5   ar
    24    10    11    2
    25     1     2   ar
    26     3     4   ar
    27    25    26   ar
    28    28    29   ar
    29    30    32   ar
    30     5     6   ar
    31     7     8   ar
    32    16    17    2
    33    12    13    1
    34    18    19    1
@<TRIPOS>MOLECULE
MolPort-028-889-922 ChemDiv-V030-3017 MCULE-1497383710 PubChem-83281344 ZINC000096275279
 32 34 0 0 0
SMALL
GASTEIGER

@<TRIPOS>ATOM
      1 C           9.6479   41.2259    8.2346 C.ar    1  UNL1        0.0504
      2 C           9.7197   40.2348    9.2383 C.ar    1  UNL1        0.0162
      3 C          10.9582   39.8135    9.7521 C.ar    1  UNL1        0.0185
      4 C          12.1092   40.4080    9.2353 C.ar    1  UNL1        0.0603
      5 C          14.1366   40.9978    8.8023 C.ar    1  UNL1        0.1142
      6 C          13.3326   41.7723    7.9594 C.ar    1  UNL1        0.0233
      7 C          12.0482   41.3689    8.2636 C.ar    1  UNL1        0.0186
      8 C          10.8356   41.8048    7.7374 C.ar    1  UNL1        0.0162
      9 N          13.3857   40.1674    9.5752 N.ar    1  UNL1       -0.3194
     10 C           7.4647   42.5671    8.3442 C.2     1  UNL1        0.2261
     11 O           7.7592   43.1531    9.4192 O.2     1  UNL1       -0.2748
     12 N           8.3566   41.6152    7.7474 N.am    1  UNL1       -0.2839
     13 H           8.0503   41.1842    6.9169 H       1  UNL1        0.1549
     14 C           5.8747   44.3463    7.7253 C.3     1  UNL1        0.0101
     15 C           6.1568   42.8568    7.6943 C.3     1  UNL1        0.0854
     16 C          15.6110   41.0873    8.8226 C.2     1  UNL1        0.2618
     17 O          16.2684   40.3121    9.5693 O.2     1  UNL1       -0.2686
     18 N          16.2969   42.0399    8.0061 N.am    1  UNL1       -0.2973
     19 H          15.7689   42.6023    7.3944 H       1  UNL1        0.1499
     20 C          17.7417   42.2147    8.0397 C.3     1  UNL1        0.1219
     21 C          18.0942   43.6887    8.1532 C.3     1  UNL1        0.1634
     22 C          17.1285   44.4860    6.3375 C.3     1  UNL1        0.1742
     23 O          17.0238   44.4752    7.7274 O.3     1  UNL1       -0.3493
     24 C          13.8433   39.2469   10.6129 C.3     1  UNL1        0.1325
     25 C          14.1305   37.8965   10.0307 C.ar    1  UNL1       -0.0039
     26 C          13.1449   36.8910    9.9928 C.ar    1  UNL1       -0.0240
     27 C          11.7675   37.1276   10.5129 C.3     1  UNL1        0.0308
     28 C          13.4505   35.6390    9.4489 C.ar    1  UNL1       -0.0048
     29 C          14.7270   35.3828    8.9417 C.ar    1  UNL1       -0.0046
     30 C          15.7044   36.3799    8.9747 C.ar    1  UNL1       -0.0221
     31 C          17.0618   36.1089    8.4344 C.3     1  UNL1        0.0310
     32 C          15.4063   37.6321    9.5166 C.ar    1  UNL1       -0.0070
@<TRIPOS>BOND
     1    14    15    1
     2    15    10    1
     3    10    12   am
     4     2     3   ar
     5     4     9   ar
     6    24     9    1
     7    24    25    1
     8    26    28   ar
     9    27    26    1
    10    29    30   ar
    11    31    30    1
    12    32    25   ar
    13     5    16    1
    14     6     7   ar
    15     7     4   ar
    16     8     1   ar
    17    16    18   am
    18    20    18    1
    19    20    21    1
    20    21    23    1
    21    22    23    1
    22    12     1    1
    23     9     5   ar
    24    10    11    2
    25     1     2   ar
    26     3     4   ar
    27    25    26   ar
    28    28    29   ar
    29    30    32   ar
    30     5     6   ar
    31     7     8   ar
    32    16    17    2
    33    12    13    1
    34    18    19    1
@<TRIPOS>MOLECULE
MolPort-028-889-922 ChemDiv-V030-3017 MCULE-1497383710 PubChem-83281344 ZINC000096275279
 32 34 0 0 0
SMALL
GASTEIGER

@<TRIPOS>ATOM
      1 C          10.3675   39.4704    5.5666 C.ar    1  UNL1        0.0504
      2 C           9.8169   39.8939    6.7963 C.ar    1  UNL1        0.0162
      3 C          10.3963   40.9475    7.5240 C.ar    1  UNL1        0.0185
      4 C          11.5314   41.5563    6.9888 C.ar    1  UNL1        0.0603
      5 C          13.2429   42.8111    6.6125 C.ar    1  UNL1        0.1142
      6 C          13.1727   41.9361    5.5234 C.ar    1  UNL1        0.0233
      7 C          12.0705   41.1523    5.7983 C.ar    1  UNL1        0.0186
      8 C          11.5170   40.1122    5.0571 C.ar    1  UNL1        0.0162
      9 N          12.2419   42.5732    7.5026 N.ar    1  UNL1       -0.3194
     10 C          10.2755   37.6428    3.7697 C.2     1  UNL1        0.2261
     11 O          11.4094   37.9121    3.2926 O.2     1  UNL1       -0.2748
     12 N           9.7345   38.3893    4.8687 N.am    1  UNL1       -0.2839
     13 H           8.8350   38.1328    5.1759 H       1  UNL1        0.1549
     14 C          10.2385   35.2323    3.2550 C.3     1  UNL1        0.0101
     15 C           9.4771   36.5406    3.1659 C.3     1  UNL1        0.0854
     16 C          14.2871   43.8464    6.7540 C.2     1  UNL1        0.2618
     17 O          14.0212   45.0404    6.4469 O.2     1  UNL1       -0.2686
     18 N          15.5907   43.5090    7.2351 N.am    1  UNL1       -0.2973
     19 H          15.7634   42.5812    7.5154 H       1  UNL1        0.1499
     20 C          16.6738   44.4773    7.3284 C.3     1  UNL1        0.1219
     21 C          17.8708   43.8661    8.0378 C.3     1  UNL1        0.1634
     22 C          17.6253   41.7772    8.7021 C.3     1  UNL1        0.1742
     23 O          17.4481   43.0949    9.1205 O.3     1  UNL1       -0.3493
     24 C          11.9407   43.3014    8.7324 C.3     1  UNL1        0.1325
     25 C          11.3549   42.3814    9.7598 C.ar    1  UNL1       -0.0039
     26 C          12.0424   41.2288   10.1873 C.ar    1  UNL1       -0.0240
     27 C          13.3899   40.8797    9.6522 C.3     1  UNL1        0.0308
     28 C          11.4618   40.3880   11.1426 C.ar    1  UNL1       -0.0048
     29 C          10.2053   40.6875   11.6754 C.ar    1  UNL1       -0.0046
     30 C           9.5239   41.8321   11.2559 C.ar    1  UNL1       -0.0221
     31 C           8.1883   42.1522   11.8228 C.3     1  UNL1        0.0310
     32 C          10.0975   42.6759   10.3021 C.ar    1  UNL1       -0.0070
@<TRIPOS>BOND
     1    14    15    1
     2    15    10    1
     3    10    12   am
     4     2     3   ar
     5     4     9   ar
     6    24     9    1
     7    24    25    1
     8    26    28   ar
     9    27    26    1
    10    29    30   ar
    11    31    30    1
    12    32    25   ar
    13     5    16    1
    14     6     7   ar
    15     7     4   ar
    16     8     1   ar
    17    16    18   am
    18    20    18    1
    19    20    21    1
    20    21    23    1
    21    22    23    1
    22    12     1    1
    23     9     5   ar
    24    10    11    2
    25     1     2   ar
    26     3     4   ar
    27    25    26   ar
    28    28    29   ar
    29    30    32   ar
    30     5     6   ar
    31     7     8   ar
    32    16    17    2
    33    12    13    1
    34    18    19    1
@<TRIPOS>MOLECULE
MolPort-028-889-922 ChemDiv-V030-3017 MCULE-1497383710 PubChem-83281344 ZINC000096275279
 32 34 0 0 0
SMALL
GASTEIGER

@<TRIPOS>ATOM
      1 C           7.4211   37.9683    1.8633 C.ar    1  UNL1        0.0504
      2 C           7.2881   36.6180    1.4712 C.ar    1  UNL1        0.0162
      3 C           6.0352   36.0865    1.1202 C.ar    1  UNL1        0.0185
      4 C           4.9325   36.9389    1.1741 C.ar    1  UNL1        0.0603
      5 C           2.9623   37.8077    1.0788 C.ar    1  UNL1        0.1142
      6 C           3.8068   38.8389    1.5033 C.ar    1  UNL1        0.0233
      7 C           5.0530   38.2479    1.5523 C.ar    1  UNL1        0.0186
      8 C           6.2813   38.8001    1.9046 C.ar    1  UNL1        0.0162
      9 N           3.6535   36.6526    0.8822 N.ar    1  UNL1       -0.3194
     10 C           9.4510   38.1771    3.4167 C.2     1  UNL1        0.2261
     11 O           8.9590   37.4561    4.3245 O.2     1  UNL1       -0.2748
     12 N           8.7242   38.4552    2.2117 N.am    1  UNL1       -0.2839
     13 H           9.1660   39.0414    1.5555 H       1  UNL1        0.1549
     14 C          11.8519   37.6690    3.6501 C.3     1  UNL1        0.0101
     15 C          10.8050   38.7652    3.6109 C.3     1  UNL1        0.0854
     16 C           1.5080   37.9796    0.8847 C.2     1  UNL1        0.2618
     17 O           0.7350   37.8828    1.8765 O.2     1  UNL1       -0.2686
     18 N           0.9710   38.2547   -0.4117 N.am    1  UNL1       -0.2973
     19 H           1.5948   38.3748   -1.1638 H       1  UNL1        0.1499
     20 C          -0.4578   38.3651   -0.6681 C.3     1  UNL1        0.1219
     21 C          -0.9433   39.7726   -0.3630 C.3     1  UNL1        0.1634
     22 C          -1.2853   41.6471   -1.4740 C.3     1  UNL1        0.1742
     23 O          -1.6271   40.2958   -1.4604 O.3     1  UNL1       -0.3493
     24 C           3.1462   35.3739    0.3912 C.3     1  UNL1        0.1325
     25 C           3.1038   34.3638    1.4970 C.ar    1  UNL1       -0.0039
     26 C           4.0000   34.4279    2.5818 C.ar    1  UNL1       -0.0240
     27 C           5.0189   35.5114    2.6899 C.3     1  UNL1        0.0308
     28 C           3.9369   33.4633    3.5928 C.ar    1  UNL1       -0.0048
     29 C           2.9886   32.4388    3.5322 C.ar    1  UNL1       -0.0046
     30 C           2.0966   32.3759    2.4595 C.ar    1  UNL1       -0.0221
     31 C           1.0869   31.2877    2.3948 C.3     1  UNL1        0.0310
     32 C           2.1540   33.3355    1.4464 C.ar    1  UNL1       -0.0070
@<TRIPOS>BOND
     1    14    15    1
     2    15    10    1
     3    10    12   am
     4     2     3   ar
     5     4     9   ar
     6    24     9    1
     7    24    25    1
     8    26    28   ar
     9    27    26    1
    10    29    30   ar
    11    31    30    1
    12    32    25   ar
    13     5    16    1
    14     6     7   ar
    15     7     4   ar
    16     8     1   ar
    17    16    18   am
    18    20    18    1
    19    20    21    1
    20    21    23    1
    21    22    23    1
    22    12     1    1
    23     9     5   ar
    24    10    11    2
    25     1     2   ar
    26     3     4   ar
    27    25    26   ar
    28    28    29   ar
    29    30    32   ar
    30     5     6   ar
    31     7     8   ar
    32    16    17    2
    33    12    13    1
    34    18    19    1
@<TRIPOS>MOLECULE
MolPort-028-889-922 ChemDiv-V030-3017 MCULE-1497383710 PubChem-83281344 ZINC000096275279
 32 34 0 0 0
SMALL
GASTEIGER

@<TRIPOS>ATOM
      1 C           8.9176   40.8887    8.7601 C.ar    1  UNL1        0.0504
      2 C           9.3747   39.5523    8.7510 C.ar    1  UNL1        0.0162
      3 C          10.7241   39.2507    8.4992 C.ar    1  UNL1        0.0185
      4 C          11.5914   40.3163    8.2587 C.ar    1  UNL1        0.0603
      5 C          13.3043   41.5587    7.8490 C.ar    1  UNL1        0.1142
      6 C          12.2302   42.4409    8.0065 C.ar    1  UNL1        0.0233
      7 C          11.1567   41.6133    8.2662 C.ar    1  UNL1        0.0186
      8 C           9.8264   41.9402    8.5129 C.ar    1  UNL1        0.0162
      9 N          12.9083   40.2662    8.0015 N.ar    1  UNL1       -0.3194
     10 C           6.9503   41.5453   10.2687 C.2     1  UNL1        0.2261
     11 O           7.6600   41.7078   11.2962 O.2     1  UNL1       -0.2748
     12 N           7.5295   41.1361    9.0217 N.am    1  UNL1       -0.2839
     13 H           6.9096   41.0122    8.2671 H       1  UNL1        0.1549
     14 C           5.0407   42.7973    9.3399 C.3     1  UNL1        0.0101
     15 C           5.4805   41.7648   10.3596 C.3     1  UNL1        0.0854
     16 C          14.6806   42.0034    7.5485 C.2     1  UNL1        0.2618
     17 O          14.9449   42.4728    6.4080 O.2     1  UNL1       -0.2686
     18 N          15.7114   41.9083    8.5349 N.am    1  UNL1       -0.2973
     19 H          15.4741   41.5849    9.4340 H       1  UNL1        0.1499
     20 C          17.0964   42.2686    8.2680 C.3     1  UNL1        0.1219
     21 C          17.2618   43.7793    8.2783 C.3     1  UNL1        0.1634
     22 C          17.4578   44.3112    6.1468 C.3     1  UNL1        0.1742
     23 O          18.1972   44.1690    7.3198 O.3     1  UNL1       -0.3493
     24 C          13.7351   39.0626    7.9658 C.3     1  UNL1        0.1325
     25 C          13.6669   38.3371    9.2751 C.ar    1  UNL1       -0.0039
     26 C          14.5564   38.6367   10.3253 C.ar    1  UNL1       -0.0240
     27 C          15.5939   39.6994   10.1906 C.3     1  UNL1        0.0308
     28 C          14.4690   37.9338   11.5314 C.ar    1  UNL1       -0.0048
     29 C          13.5029   36.9384   11.6994 C.ar    1  UNL1       -0.0046
     30 C          12.6174   36.6427   10.6607 C.ar    1  UNL1       -0.0221
     31 C          11.5888   35.5853   10.8387 C.3     1  UNL1        0.0310
     32 C          12.6991   37.3403    9.4536 C.ar    1  UNL1       -0.0070
@<TRIPOS>BOND
     1    14    15    1
     2    15    10    1
     3    10    12   am
     4     2     3   ar
     5     4     9   ar
     6    24     9    1
     7    24    25    1
     8    26    28   ar
     9    27    26    1
    10    29    30   ar
    11    31    30    1
    12    32    25   ar
    13     5    16    1
    14     6     7   ar
    15     7     4   ar
    16     8     1   ar
    17    16    18   am
    18    20    18    1
    19    20    21    1
    20    21    23    1
    21    22    23    1
    22    12     1    1
    23     9     5   ar
    24    10    11    2
    25     1     2   ar
    26     3     4   ar
    27    25    26   ar
    28    28    29   ar
    29    30    32   ar
    30     5     6   ar
    31     7     8   ar
    32    16    17    2
    33    12    13    1
    34    18    19    1
