@<TRIPOS>MOLECULE
MolPort-019-935-284 67896687 CSSS00159285959 MCULE-2807596587 PubChem-56774746 ZINC000067896687 ZINC67896687
 37 40 0 0 0
SMALL
GASTEIGER

@<TRIPOS>ATOM
      1 C           7.6466   41.2691    7.9806 C.3     1  UNL1        0.1532
      2 O           7.0556   40.8819    6.7759 O.3     1  UNL1       -0.3783
      3 H           6.3665   41.5203    6.5339 H       1  UNL1        0.2109
      4 C           8.3461   42.6306    7.8581 C.3     1  UNL1        0.1362
      5 C           7.3462   43.7336    8.2678 C.3     1  UNL1        0.1653
      6 C           8.5442   44.5829    9.9701 C.3     1  UNL1        0.2272
      7 C           9.6241   43.5648    9.8131 C.2     1  UNL1        0.2562
      8 O           8.0160   44.8902    8.7045 O.3     1  UNL1       -0.3426
      9 O          10.5745   43.5078   10.6381 O.2     1  UNL1       -0.2721
     10 N           9.5683   42.6834    8.6803 N.am    1  UNL1       -0.2697
     11 C          10.8081   42.1223    8.1460 C.3     1  UNL1        0.1233
     12 C          10.8650   39.5674    8.3208 C.ar    1  UNL1        0.1363
     13 C          11.1533   40.8493    8.8581 C.ar    1  UNL1        0.0317
     14 C          11.8842   40.9475   10.0508 C.ar    1  UNL1        0.0004
     15 C          12.3445   39.8025   10.7013 C.ar    1  UNL1       -0.0001
     16 C          12.0881   38.5442   10.1584 C.ar    1  UNL1        0.0031
     17 C          11.3561   38.4306    8.9746 C.ar    1  UNL1        0.0366
     18 C           9.2214   38.2691    6.9678 C.3     1  UNL1        0.2525
     19 O          10.1111   39.3596    7.1569 O.3     1  UNL1       -0.4717
     20 C           6.6139   41.2858    9.0640 C.ar    1  UNL1        0.0060
     21 C           6.9818   41.4332   10.4088 C.ar    1  UNL1       -0.0006
     22 C           6.0043   41.4415   11.4072 C.ar    1  UNL1        0.0144
     23 C           4.6524   41.3057   11.0748 C.ar    1  UNL1        0.0503
     24 C           4.2879   41.1617    9.7269 C.ar    1  UNL1        0.0144
     25 C           5.2639   41.1507    8.7270 C.ar    1  UNL1       -0.0006
     26 C           2.3788   41.9248   12.0818 C.2     1  UNL1        0.2264
     27 O           1.9972   42.5797   11.0747 O.2     1  UNL1       -0.2748
     28 N           3.6778   41.3183   12.1265 N.am    1  UNL1       -0.2839
     29 H           3.9255   40.8644   12.9643 H       1  UNL1        0.1549
     30 C           1.4643   41.7788   13.2495 C.3     1  UNL1        0.0900
     31 C           0.5795   43.0081   13.4180 C.3     1  UNL1        0.0359
     32 C          -0.1986   42.9566   14.6934 C.ar    1  UNL1       -0.0217
     33 C           0.4763   43.0566   15.9157 C.ar    1  UNL1       -0.0043
     34 C          -0.2380   43.0141   17.1184 C.ar    1  UNL1       -0.0003
     35 C          -1.6293   42.8641   17.1022 C.ar    1  UNL1       -0.0000
     36 C          -2.3053   42.7515   15.8816 C.ar    1  UNL1       -0.0003
     37 C          -1.5912   42.7945   14.6790 C.ar    1  UNL1       -0.0043
@<TRIPOS>BOND
     1    18    19    1
     2    12    19    1
     3    13    14   ar
     4    11    13    1
     5    11    10    1
     6     4    10    1
     7     4     5    1
     8     4     1    1
     9     5     8    1
    10     6     8    1
    11     6     7    1
    12     7    10   am
    13     1     2    1
    14     1    20    1
    15    21    22   ar
    16    23    28    1
    17    23    24   ar
    18    30    26    1
    19    30    31    1
    20    31    32    1
    21    33    34   ar
    22    35    36   ar
    23    37    32   ar
    24    25    20   ar
    25    15    16   ar
    26    17    12   ar
    27    28    26   am
    28    12    13   ar
    29     7     9    2
    30    20    21   ar
    31    22    23   ar
    32    26    27    2
    33    32    33   ar
    34    34    35   ar
    35    36    37   ar
    36    24    25   ar
    37    14    15   ar
    38    16    17   ar
    39     2     3    1
    40    28    29    1
@<TRIPOS>MOLECULE
MolPort-019-935-284 67896687 CSSS00159285959 MCULE-2807596587 PubChem-56774746 ZINC000067896687 ZINC67896687
 37 40 0 0 0
SMALL
GASTEIGER

@<TRIPOS>ATOM
      1 C           8.9624   40.7238    8.2864 C.3     1  UNL1        0.1532
      2 O           8.5570   39.3921    8.1724 O.3     1  UNL1       -0.3783
      3 H           8.7311   38.9285    9.0065 H       1  UNL1        0.2109
      4 C           8.1656   41.4693    9.3668 C.3     1  UNL1        0.1362
      5 C           9.0427   41.5812   10.6327 C.3     1  UNL1        0.1653
      6 C           9.0721   43.8257   10.7584 C.3     1  UNL1        0.2272
      7 C           8.2801   43.9785    9.5027 C.2     1  UNL1        0.2562
      8 O           8.6458   42.6680   11.4316 O.3     1  UNL1       -0.3426
      9 O           8.0729   45.1202    9.0119 O.2     1  UNL1       -0.2721
     10 N           7.7329   42.7973    8.8958 N.am    1  UNL1       -0.2697
     11 C           6.5208   42.9028    8.0852 C.3     1  UNL1        0.1233
     12 C           4.2047   43.2906    9.1083 C.ar    1  UNL1        0.1363
     13 C           5.3268   42.4538    8.8724 C.ar    1  UNL1        0.0317
     14 C           5.2894   41.1168    9.2937 C.ar    1  UNL1        0.0004
     15 C           4.1572   40.5990    9.9232 C.ar    1  UNL1       -0.0001
     16 C           3.0431   41.4118   10.1281 C.ar    1  UNL1        0.0031
     17 C           3.0682   42.7469    9.7195 C.ar    1  UNL1        0.0366
     18 C           3.6902   45.1350    7.5110 C.3     1  UNL1        0.2525
     19 O           4.1558   44.6483    8.7611 O.3     1  UNL1       -0.4717
     20 C          10.4326   40.7792    8.5621 C.ar    1  UNL1        0.0060
     21 C          11.1983   41.8868    8.1714 C.ar    1  UNL1       -0.0006
     22 C          12.5705   41.9189    8.4327 C.ar    1  UNL1        0.0144
     23 C          13.1913   40.8499    9.0872 C.ar    1  UNL1        0.0503
     24 C          12.4206   39.7442    9.4797 C.ar    1  UNL1        0.0144
     25 C          11.0485   39.7089    9.2174 C.ar    1  UNL1       -0.0006
     26 C          15.3710   40.0191   10.1480 C.2     1  UNL1        0.2264
     27 O          14.8221   39.0794   10.7840 O.2     1  UNL1       -0.2748
     28 N          14.6014   40.9182    9.3375 N.am    1  UNL1       -0.2839
     29 H          15.0913   41.6572    8.9096 H       1  UNL1        0.1549
     30 C          16.8472   40.2014   10.2407 C.3     1  UNL1        0.0900
     31 C          17.4644   40.4348    8.8669 C.3     1  UNL1        0.0359
     32 C          17.2131   41.8252    8.3788 C.ar    1  UNL1       -0.0217
     33 C          16.1712   42.0588    7.4736 C.ar    1  UNL1       -0.0043
     34 C          15.9203   43.3553    7.0102 C.ar    1  UNL1       -0.0003
     35 C          16.7160   44.4212    7.4454 C.ar    1  UNL1       -0.0000
     36 C          17.7663   44.1884    8.3410 C.ar    1  UNL1       -0.0003
     37 C          18.0168   42.8922    8.8048 C.ar    1  UNL1       -0.0043
@<TRIPOS>BOND
     1    18    19    1
     2    12    19    1
     3    13    14   ar
     4    11    13    1
     5    11    10    1
     6     4    10    1
     7     4     5    1
     8     4     1    1
     9     5     8    1
    10     6     8    1
    11     6     7    1
    12     7    10   am
    13     1     2    1
    14     1    20    1
    15    21    22   ar
    16    23    28    1
    17    23    24   ar
    18    30    26    1
    19    30    31    1
    20    31    32    1
    21    33    34   ar
    22    35    36   ar
    23    37    32   ar
    24    25    20   ar
    25    15    16   ar
    26    17    12   ar
    27    28    26   am
    28    12    13   ar
    29     7     9    2
    30    20    21   ar
    31    22    23   ar
    32    26    27    2
    33    32    33   ar
    34    34    35   ar
    35    36    37   ar
    36    24    25   ar
    37    14    15   ar
    38    16    17   ar
    39     2     3    1
    40    28    29    1
@<TRIPOS>MOLECULE
MolPort-019-935-284 67896687 CSSS00159285959 MCULE-2807596587 PubChem-56774746 ZINC000067896687 ZINC67896687
 37 40 0 0 0
SMALL
GASTEIGER

@<TRIPOS>ATOM
      1 C           7.4648   41.8069   10.3286 C.3     1  UNL1        0.1532
      2 O           7.4447   42.4194   11.5836 O.3     1  UNL1       -0.3783
      3 H           7.8901   43.2795   11.5308 H       1  UNL1        0.2109
      4 C           6.6932   42.6267    9.2844 C.3     1  UNL1        0.1362
      5 C           7.5964   43.7840    8.8054 C.3     1  UNL1        0.1653
      6 C           7.6379   43.2272    6.6276 C.3     1  UNL1        0.2272
      7 C           6.8213   41.9984    6.8519 C.2     1  UNL1        0.2562
      8 O           7.2204   44.2255    7.5245 O.3     1  UNL1       -0.3426
      9 O           6.6089   41.1903    5.9089 O.2     1  UNL1       -0.2721
     10 N           6.2567   41.7855    8.1554 N.am    1  UNL1       -0.2697
     11 C           5.0289   41.0029    8.2865 C.3     1  UNL1        0.1233
     12 C           3.3930   42.2860    9.7827 C.ar    1  UNL1        0.1363
     13 C           4.3752   41.2764    9.6074 C.ar    1  UNL1        0.0317
     14 C           4.6816   40.4210   10.6755 C.ar    1  UNL1        0.0004
     15 C           4.0195   40.5409   11.8976 C.ar    1  UNL1       -0.0001
     16 C           3.0331   41.5125   12.0612 C.ar    1  UNL1        0.0031
     17 C           2.7217   42.3755   11.0084 C.ar    1  UNL1        0.0366
     18 C           3.7970   44.3761    8.4840 C.3     1  UNL1        0.2525
     19 O           3.0410   43.2141    8.7921 O.3     1  UNL1       -0.4717
     20 C           8.8819   41.5820    9.9022 C.ar    1  UNL1        0.0060
     21 C           9.2067   40.5765    8.9807 C.ar    1  UNL1       -0.0006
     22 C          10.5359   40.3779    8.5980 C.ar    1  UNL1        0.0144
     23 C          11.5520   41.1801    9.1276 C.ar    1  UNL1        0.0503
     24 C          11.2222   42.1878   10.0475 C.ar    1  UNL1        0.0144
     25 C           9.8940   42.3868   10.4334 C.ar    1  UNL1       -0.0006
     26 C          13.9624   40.3991    9.5108 C.2     1  UNL1        0.2264
     27 O          13.7858   40.1195   10.7271 O.2     1  UNL1       -0.2748
     28 N          12.9041   40.9462    8.7118 N.am    1  UNL1       -0.2839
     29 H          13.1291   41.1854    7.7837 H       1  UNL1        0.1549
     30 C          15.2960   40.1586    8.8904 C.3     1  UNL1        0.0900
     31 C          16.3230   41.1766    9.3715 C.3     1  UNL1        0.0359
     32 C          16.5403   42.2589    8.3635 C.ar    1  UNL1       -0.0217
     33 C          15.5599   42.5041    7.3951 C.ar    1  UNL1       -0.0043
     34 C          15.7464   43.5164    6.4468 C.ar    1  UNL1       -0.0003
     35 C          16.9179   44.2817    6.4601 C.ar    1  UNL1       -0.0000
     36 C          17.9054   44.0304    7.4199 C.ar    1  UNL1       -0.0003
     37 C          17.7188   43.0186    8.3683 C.ar    1  UNL1       -0.0043
@<TRIPOS>BOND
     1    18    19    1
     2    12    19    1
     3    13    14   ar
     4    11    13    1
     5    11    10    1
     6     4    10    1
     7     4     5    1
     8     4     1    1
     9     5     8    1
    10     6     8    1
    11     6     7    1
    12     7    10   am
    13     1     2    1
    14     1    20    1
    15    21    22   ar
    16    23    28    1
    17    23    24   ar
    18    30    26    1
    19    30    31    1
    20    31    32    1
    21    33    34   ar
    22    35    36   ar
    23    37    32   ar
    24    25    20   ar
    25    15    16   ar
    26    17    12   ar
    27    28    26   am
    28    12    13   ar
    29     7     9    2
    30    20    21   ar
    31    22    23   ar
    32    26    27    2
    33    32    33   ar
    34    34    35   ar
    35    36    37   ar
    36    24    25   ar
    37    14    15   ar
    38    16    17   ar
    39     2     3    1
    40    28    29    1
@<TRIPOS>MOLECULE
MolPort-019-935-284 67896687 CSSS00159285959 MCULE-2807596587 PubChem-56774746 ZINC000067896687 ZINC67896687
 37 40 0 0 0
SMALL
GASTEIGER

@<TRIPOS>ATOM
      1 C          11.3882   39.3731    8.4002 C.3     1  UNL1        0.1532
      2 O          11.9078   39.0118    7.1551 O.3     1  UNL1       -0.3783
      3 H          12.0714   39.8101    6.6290 H       1  UNL1        0.2109
      4 C          12.3824   40.2220    9.2056 C.3     1  UNL1        0.1362
      5 C          12.3057   39.7926   10.6868 C.3     1  UNL1        0.1653
      6 C          14.4535   39.1675   10.9114 C.3     1  UNL1        0.2272
      7 C          14.7603   39.4477    9.4780 C.2     1  UNL1        0.2562
      8 O          13.4994   40.0940   11.3659 O.3     1  UNL1       -0.3426
      9 O          15.8876   39.1570    8.9963 O.2     1  UNL1       -0.2721
     10 N          13.7530   40.0889    8.6797 N.am    1  UNL1       -0.2697
     11 C          14.1558   40.9027    7.5340 C.3     1  UNL1        0.1233
     12 C          15.3867   43.1484    7.4767 C.ar    1  UNL1        0.1363
     13 C          15.2981   41.7987    7.9072 C.ar    1  UNL1        0.0317
     14 C          16.2528   41.2979    8.8040 C.ar    1  UNL1        0.0004
     15 C          17.2734   42.1159    9.2892 C.ar    1  UNL1       -0.0001
     16 C          17.3435   43.4501    8.8907 C.ar    1  UNL1        0.0031
     17 C          16.4035   43.9610    7.9932 C.ar    1  UNL1        0.0366
     18 C          13.7367   43.0023    5.6128 C.3     1  UNL1        0.2525
     19 O          14.5067   43.7340    6.5553 O.3     1  UNL1       -0.4717
     20 C          10.0889   40.0923    8.2125 C.ar    1  UNL1        0.0060
     21 C           9.4457   40.7129    9.2927 C.ar    1  UNL1       -0.0006
     22 C           8.2307   41.3755    9.0996 C.ar    1  UNL1        0.0144
     23 C           7.6475   41.4278    7.8293 C.ar    1  UNL1        0.0503
     24 C           8.2963   40.8079    6.7498 C.ar    1  UNL1        0.0144
     25 C           9.5102   40.1428    6.9410 C.ar    1  UNL1       -0.0006
     26 C           6.1488   43.5038    7.9326 C.2     1  UNL1        0.2264
     27 O           7.0458   44.2525    8.4054 O.2     1  UNL1       -0.2748
     28 N           6.3999   42.1162    7.6699 N.am    1  UNL1       -0.2839
     29 H           5.6382   41.5823    7.3473 H       1  UNL1        0.1549
     30 C           4.8009   44.0696    7.6424 C.3     1  UNL1        0.0900
     31 C           3.9288   44.0936    8.8919 C.3     1  UNL1        0.0359
     32 C           3.9770   42.7904    9.6228 C.ar    1  UNL1       -0.0217
     33 C           4.8946   42.6201   10.6660 C.ar    1  UNL1       -0.0043
     34 C           4.9495   41.4076   11.3628 C.ar    1  UNL1       -0.0003
     35 C           4.0913   40.3590   11.0130 C.ar    1  UNL1       -0.0000
     36 C           3.1812   40.5224    9.9621 C.ar    1  UNL1       -0.0003
     37 C           3.1259   41.7349    9.2658 C.ar    1  UNL1       -0.0043
@<TRIPOS>BOND
     1    18    19    1
     2    12    19    1
     3    13    14   ar
     4    11    13    1
     5    11    10    1
     6     4    10    1
     7     4     5    1
     8     4     1    1
     9     5     8    1
    10     6     8    1
    11     6     7    1
    12     7    10   am
    13     1     2    1
    14     1    20    1
    15    21    22   ar
    16    23    28    1
    17    23    24   ar
    18    30    26    1
    19    30    31    1
    20    31    32    1
    21    33    34   ar
    22    35    36   ar
    23    37    32   ar
    24    25    20   ar
    25    15    16   ar
    26    17    12   ar
    27    28    26   am
    28    12    13   ar
    29     7     9    2
    30    20    21   ar
    31    22    23   ar
    32    26    27    2
    33    32    33   ar
    34    34    35   ar
    35    36    37   ar
    36    24    25   ar
    37    14    15   ar
    38    16    17   ar
    39     2     3    1
    40    28    29    1
@<TRIPOS>MOLECULE
MolPort-019-935-284 67896687 CSSS00159285959 MCULE-2807596587 PubChem-56774746 ZINC000067896687 ZINC67896687
 37 40 0 0 0
SMALL
GASTEIGER

@<TRIPOS>ATOM
      1 C           6.7358   41.8760    7.8287 C.3     1  UNL1        0.1532
      2 O           6.1564   42.5488    6.7506 O.3     1  UNL1       -0.3783
      3 H           6.0268   43.4814    6.9834 H       1  UNL1        0.2109
      4 C           8.1272   42.4325    8.1636 C.3     1  UNL1        0.1362
      5 C           7.9547   43.8159    8.8275 C.3     1  UNL1        0.1653
      6 C           8.9666   43.3235   10.7737 C.3     1  UNL1        0.2272
      7 C           9.1905   41.9013   10.3806 C.2     1  UNL1        0.2562
      8 O           9.0633   44.1359    9.6310 O.3     1  UNL1       -0.3426
      9 O           9.6709   41.0779   11.2043 O.2     1  UNL1       -0.2721
     10 N           8.8801   41.5111    9.0336 N.am    1  UNL1       -0.2697
     11 C           9.5957   40.3890    8.4286 C.3     1  UNL1        0.1233
     12 C          10.9670   41.0097    6.3561 C.ar    1  UNL1        0.1363
     13 C          10.8505   40.8688    7.7637 C.ar    1  UNL1        0.0317
     14 C          11.9039   41.2910    8.5875 C.ar    1  UNL1        0.0004
     15 C          13.0524   41.8626    8.0397 C.ar    1  UNL1       -0.0001
     16 C          13.1551   42.0294    6.6592 C.ar    1  UNL1        0.0031
     17 C          12.1168   41.6080    5.8259 C.ar    1  UNL1        0.0366
     18 C          10.2752   40.0449    4.1632 C.3     1  UNL1        0.2525
     19 O           9.9892   40.5857    5.4447 O.3     1  UNL1       -0.4717
     20 C           5.8240   41.9470    9.0137 C.ar    1  UNL1        0.0060
     21 C           6.0265   41.1231   10.1298 C.ar    1  UNL1       -0.0006
     22 C           5.1621   41.1998   11.2250 C.ar    1  UNL1        0.0144
     23 C           4.0907   42.0989   11.2190 C.ar    1  UNL1        0.0503
     24 C           3.8933   42.9244   10.1009 C.ar    1  UNL1        0.0144
     25 C           4.7550   42.8479    9.0036 C.ar    1  UNL1       -0.0006
     26 C           1.7910   42.1971   12.3452 C.2     1  UNL1        0.2264
     27 O           1.1504   42.2601   11.2615 O.2     1  UNL1       -0.2748
     28 N           3.2244   42.1489   12.3605 N.am    1  UNL1       -0.2839
     29 H           3.6576   42.1502   13.2446 H       1  UNL1        0.1549
     30 C           1.0458   42.1738   13.6357 C.3     1  UNL1        0.0900
     31 C          -0.3519   42.7606   13.4795 C.3     1  UNL1        0.0359
     32 C          -0.4211   44.1635   13.9914 C.ar    1  UNL1       -0.0217
     33 C          -1.5941   44.9052   13.8093 C.ar    1  UNL1       -0.0043
     34 C          -1.6764   46.2185   14.2861 C.ar    1  UNL1       -0.0003
     35 C          -0.5824   46.7962   14.9403 C.ar    1  UNL1       -0.0000
     36 C           0.5961   46.0608   15.1128 C.ar    1  UNL1       -0.0003
     37 C           0.6782   44.7476   14.6365 C.ar    1  UNL1       -0.0043
@<TRIPOS>BOND
     1    18    19    1
     2    12    19    1
     3    13    14   ar
     4    11    13    1
     5    11    10    1
     6     4    10    1
     7     4     5    1
     8     4     1    1
     9     5     8    1
    10     6     8    1
    11     6     7    1
    12     7    10   am
    13     1     2    1
    14     1    20    1
    15    21    22   ar
    16    23    28    1
    17    23    24   ar
    18    30    26    1
    19    30    31    1
    20    31    32    1
    21    33    34   ar
    22    35    36   ar
    23    37    32   ar
    24    25    20   ar
    25    15    16   ar
    26    17    12   ar
    27    28    26   am
    28    12    13   ar
    29     7     9    2
    30    20    21   ar
    31    22    23   ar
    32    26    27    2
    33    32    33   ar
    34    34    35   ar
    35    36    37   ar
    36    24    25   ar
    37    14    15   ar
    38    16    17   ar
    39     2     3    1
    40    28    29    1
@<TRIPOS>MOLECULE
MolPort-019-935-284 67896687 CSSS00159285959 MCULE-2807596587 PubChem-56774746 ZINC000067896687 ZINC67896687
 37 40 0 0 0
SMALL
GASTEIGER

@<TRIPOS>ATOM
      1 C           8.7084   41.8166    7.1755 C.3     1  UNL1        0.1532
      2 O           8.7330   42.5667    5.9976 O.3     1  UNL1       -0.3783
      3 H           8.6634   43.5098    6.2134 H       1  UNL1        0.2109
      4 C           9.9066   42.1401    8.0797 C.3     1  UNL1        0.1362
      5 C           9.3983   42.9394    9.2992 C.3     1  UNL1        0.1653
      6 C          10.0806   41.4994   10.8851 C.3     1  UNL1        0.2272
      7 C          10.5926   40.5224    9.8798 C.2     1  UNL1        0.2562
      8 O          10.2687   42.8031   10.3950 O.3     1  UNL1       -0.3426
      9 O          11.0268   39.3974   10.2445 O.2     1  UNL1       -0.2721
     10 N          10.6110   40.9149    8.4982 N.am    1  UNL1       -0.2697
     11 C          11.5940   40.3178    7.5958 C.3     1  UNL1        0.1233
     12 C          13.9383   41.1474    8.2102 C.ar    1  UNL1        0.1363
     13 C          12.7642   41.2376    7.4177 C.ar    1  UNL1        0.0317
     14 C          12.7213   42.1473    6.3513 C.ar    1  UNL1        0.0004
     15 C          13.8240   42.9477    6.0522 C.ar    1  UNL1       -0.0001
     16 C          14.9885   42.8383    6.8111 C.ar    1  UNL1        0.0031
     17 C          15.0436   41.9413    7.8799 C.ar    1  UNL1        0.0366
     18 C          15.2513   39.5794    9.6367 C.3     1  UNL1        0.2525
     19 O          14.0692   40.2994    9.3192 O.3     1  UNL1       -0.4717
     20 C           7.4130   42.0456    7.8897 C.ar    1  UNL1        0.0060
     21 C           6.9128   41.1007    8.7966 C.ar    1  UNL1       -0.0006
     22 C           5.6992   41.3291    9.4504 C.ar    1  UNL1        0.0144
     23 C           4.9749   42.5011    9.2085 C.ar    1  UNL1        0.0503
     24 C           5.4808   43.4461    8.3021 C.ar    1  UNL1        0.0144
     25 C           6.6931   43.2188    7.6455 C.ar    1  UNL1       -0.0006
     26 C           3.1360   41.8173   10.8569 C.2     1  UNL1        0.2264
     27 O           3.6619   40.7074   11.1402 O.2     1  UNL1       -0.2748
     28 N           3.7333   42.7004    9.8974 N.am    1  UNL1       -0.2839
     29 H           3.2408   43.5275    9.6909 H       1  UNL1        0.1549
     30 C           1.8686   42.2198   11.5299 C.3     1  UNL1        0.0900
     31 C           2.0152   42.1984   13.0467 C.3     1  UNL1        0.0359
     32 C           0.7357   42.5610   13.7293 C.ar    1  UNL1       -0.0217
     33 C          -0.1916   41.5568   14.0313 C.ar    1  UNL1       -0.0043
     34 C          -1.3924   41.8791   14.6738 C.ar    1  UNL1       -0.0003
     35 C          -1.6725   43.2086   15.0095 C.ar    1  UNL1       -0.0000
     36 C          -0.7524   44.2163   14.6976 C.ar    1  UNL1       -0.0003
     37 C           0.4485   43.8940   14.0557 C.ar    1  UNL1       -0.0043
@<TRIPOS>BOND
     1    18    19    1
     2    12    19    1
     3    13    14   ar
     4    11    13    1
     5    11    10    1
     6     4    10    1
     7     4     5    1
     8     4     1    1
     9     5     8    1
    10     6     8    1
    11     6     7    1
    12     7    10   am
    13     1     2    1
    14     1    20    1
    15    21    22   ar
    16    23    28    1
    17    23    24   ar
    18    30    26    1
    19    30    31    1
    20    31    32    1
    21    33    34   ar
    22    35    36   ar
    23    37    32   ar
    24    25    20   ar
    25    15    16   ar
    26    17    12   ar
    27    28    26   am
    28    12    13   ar
    29     7     9    2
    30    20    21   ar
    31    22    23   ar
    32    26    27    2
    33    32    33   ar
    34    34    35   ar
    35    36    37   ar
    36    24    25   ar
    37    14    15   ar
    38    16    17   ar
    39     2     3    1
    40    28    29    1
@<TRIPOS>MOLECULE
MolPort-019-935-284 67896687 CSSS00159285959 MCULE-2807596587 PubChem-56774746 ZINC000067896687 ZINC67896687
 37 40 0 0 0
SMALL
GASTEIGER

@<TRIPOS>ATOM
      1 C          10.9398   39.2219    6.7248 C.3     1  UNL1        0.1532
      2 O          11.3984   39.2026    5.4057 O.3     1  UNL1       -0.3783
      3 H          11.6023   40.1071    5.1209 H       1  UNL1        0.2109
      4 C          12.0125   39.7450    7.6910 C.3     1  UNL1        0.1362
      5 C          12.6721   40.9917    7.0623 C.3     1  UNL1        0.1653
      6 C          12.1540   42.4418    8.7003 C.3     1  UNL1        0.2272
      7 C          11.3931   41.4135    9.4689 C.2     1  UNL1        0.2562
      8 O          13.2338   41.8215    8.0487 O.3     1  UNL1       -0.3426
      9 O          10.7550   41.7331   10.5072 O.2     1  UNL1       -0.2721
     10 N          11.4408   40.0517    9.0146 N.am    1  UNL1       -0.2697
     11 C          11.2592   38.9671    9.9779 C.3     1  UNL1        0.1233
     12 C          13.0363   37.2401   10.6263 C.ar    1  UNL1        0.1363
     13 C          12.5753   38.5819   10.5831 C.ar    1  UNL1        0.0317
     14 C          13.4170   39.6136   11.0231 C.ar    1  UNL1        0.0004
     15 C          14.7043   39.3362   11.4834 C.ar    1  UNL1       -0.0001
     16 C          15.1691   38.0218   11.4978 C.ar    1  UNL1        0.0031
     17 C          14.3399   36.9834   11.0686 C.ar    1  UNL1        0.0366
     18 C          12.7887   34.8411    9.9927 C.3     1  UNL1        0.2525
     19 O          12.2613   36.1350   10.2460 O.3     1  UNL1       -0.4717
     20 C           9.6887   40.0394    6.8096 C.ar    1  UNL1        0.0060
     21 C           8.6165   39.6351    7.6173 C.ar    1  UNL1       -0.0006
     22 C           7.4544   40.4084    7.6802 C.ar    1  UNL1        0.0144
     23 C           7.3513   41.5917    6.9415 C.ar    1  UNL1        0.0503
     24 C           8.4283   41.9948    6.1365 C.ar    1  UNL1        0.0144
     25 C           9.5905   41.2218    6.0703 C.ar    1  UNL1       -0.0006
     26 C           6.0013   43.6688    7.5972 C.2     1  UNL1        0.2264
     27 O           6.9754   44.2546    8.1419 O.2     1  UNL1       -0.2748
     28 N           6.1431   42.3587    7.0308 N.am    1  UNL1       -0.2839
     29 H           5.3280   41.9438    6.6664 H       1  UNL1        0.1549
     30 C           4.6764   44.3489    7.5414 C.3     1  UNL1        0.0900
     31 C           3.9862   44.3306    8.9000 C.3     1  UNL1        0.0359
     32 C           4.0359   42.9737    9.5253 C.ar    1  UNL1       -0.0217
     33 C           3.0382   42.0397    9.2229 C.ar    1  UNL1       -0.0043
     34 C           3.0726   40.7638    9.7968 C.ar    1  UNL1       -0.0003
     35 C           4.1016   40.4208   10.6811 C.ar    1  UNL1       -0.0000
     36 C           5.0938   41.3570   10.9948 C.ar    1  UNL1       -0.0003
     37 C           5.0597   42.6326   10.4206 C.ar    1  UNL1       -0.0043
@<TRIPOS>BOND
     1    18    19    1
     2    12    19    1
     3    13    14   ar
     4    11    13    1
     5    11    10    1
     6     4    10    1
     7     4     5    1
     8     4     1    1
     9     5     8    1
    10     6     8    1
    11     6     7    1
    12     7    10   am
    13     1     2    1
    14     1    20    1
    15    21    22   ar
    16    23    28    1
    17    23    24   ar
    18    30    26    1
    19    30    31    1
    20    31    32    1
    21    33    34   ar
    22    35    36   ar
    23    37    32   ar
    24    25    20   ar
    25    15    16   ar
    26    17    12   ar
    27    28    26   am
    28    12    13   ar
    29     7     9    2
    30    20    21   ar
    31    22    23   ar
    32    26    27    2
    33    32    33   ar
    34    34    35   ar
    35    36    37   ar
    36    24    25   ar
    37    14    15   ar
    38    16    17   ar
    39     2     3    1
    40    28    29    1
@<TRIPOS>MOLECULE
MolPort-019-935-284 67896687 CSSS00159285959 MCULE-2807596587 PubChem-56774746 ZINC000067896687 ZINC67896687
 37 40 0 0 0
SMALL
GASTEIGER

@<TRIPOS>ATOM
      1 C          10.1208   40.8318    8.5852 C.3     1  UNL1        0.1532
      2 O           9.5075   39.7065    8.0300 O.3     1  UNL1       -0.3783
      3 H           9.3432   39.0513    8.7261 H       1  UNL1        0.2109
      4 C           9.2163   41.5198    9.6179 C.3     1  UNL1        0.1362
      5 C          10.1095   42.2831   10.6200 C.3     1  UNL1        0.1653
      6 C           9.2666   44.3333   10.2450 C.3     1  UNL1        0.2272
      7 C           8.3482   43.8393    9.1774 C.2     1  UNL1        0.2562
      8 O           9.4055   43.3378   11.2274 O.3     1  UNL1       -0.3426
      9 O           7.6568   44.6486    8.5034 O.2     1  UNL1       -0.2721
     10 N           8.2480   42.4218    8.9687 N.am    1  UNL1       -0.2697
     11 C           7.0126   41.8624    8.4227 C.3     1  UNL1        0.1233
     12 C           4.7170   42.7653    9.1131 C.ar    1  UNL1        0.1363
     13 C           5.8904   42.0213    9.4038 C.ar    1  UNL1        0.0317
     14 C           5.9748   41.3121   10.6106 C.ar    1  UNL1        0.0004
     15 C           4.9132   41.3161   11.5157 C.ar    1  UNL1       -0.0001
     16 C           3.7483   42.0217   11.2175 C.ar    1  UNL1        0.0031
     17 C           3.6523   42.7377   10.0223 C.ar    1  UNL1        0.0366
     18 C           4.2178   44.9180    7.9579 C.3     1  UNL1        0.2525
     19 O           4.5480   43.5369    7.9545 O.3     1  UNL1       -0.4717
     20 C          11.4337   40.4416    9.1891 C.ar    1  UNL1        0.0060
     21 C          12.6117   41.1256    8.8575 C.ar    1  UNL1       -0.0006
     22 C          13.8291   40.7441    9.4274 C.ar    1  UNL1        0.0144
     23 C          13.8834   39.6802   10.3338 C.ar    1  UNL1        0.0503
     24 C          12.7012   38.9999   10.6657 C.ar    1  UNL1        0.0144
     25 C          11.4830   39.3782   10.0953 C.ar    1  UNL1       -0.0006
     26 C          16.4424   39.5471   10.3179 C.2     1  UNL1        0.2264
     27 O          16.5634   40.0658    9.1754 O.2     1  UNL1       -0.2748
     28 N          15.1508   39.3171   10.8976 N.am    1  UNL1       -0.2839
     29 H          15.1325   38.8637   11.7713 H       1  UNL1        0.1549
     30 C          17.6639   39.1639   11.0809 C.3     1  UNL1        0.0900
     31 C          18.8159   38.8168   10.1454 C.3     1  UNL1        0.0359
     32 C          19.0067   37.3386   10.0309 C.ar    1  UNL1       -0.0217
     33 C          18.9449   36.7325    8.7706 C.ar    1  UNL1       -0.0043
     34 C          19.1254   35.3503    8.6459 C.ar    1  UNL1       -0.0003
     35 C          19.3610   34.5690    9.7828 C.ar    1  UNL1       -0.0000
     36 C          19.4111   35.1709   11.0457 C.ar    1  UNL1       -0.0003
     37 C          19.2311   36.5530   11.1703 C.ar    1  UNL1       -0.0043
@<TRIPOS>BOND
     1    18    19    1
     2    12    19    1
     3    13    14   ar
     4    11    13    1
     5    11    10    1
     6     4    10    1
     7     4     5    1
     8     4     1    1
     9     5     8    1
    10     6     8    1
    11     6     7    1
    12     7    10   am
    13     1     2    1
    14     1    20    1
    15    21    22   ar
    16    23    28    1
    17    23    24   ar
    18    30    26    1
    19    30    31    1
    20    31    32    1
    21    33    34   ar
    22    35    36   ar
    23    37    32   ar
    24    25    20   ar
    25    15    16   ar
    26    17    12   ar
    27    28    26   am
    28    12    13   ar
    29     7     9    2
    30    20    21   ar
    31    22    23   ar
    32    26    27    2
    33    32    33   ar
    34    34    35   ar
    35    36    37   ar
    36    24    25   ar
    37    14    15   ar
    38    16    17   ar
    39     2     3    1
    40    28    29    1
@<TRIPOS>MOLECULE
MolPort-019-935-284 67896687 CSSS00159285959 MCULE-2807596587 PubChem-56774746 ZINC000067896687 ZINC67896687
 37 40 0 0 0
SMALL
GASTEIGER

@<TRIPOS>ATOM
      1 C           9.6027   41.3702    8.1449 C.3     1  UNL1        0.1532
      2 O           9.0538   40.2852    7.4578 O.3     1  UNL1       -0.3783
      3 H           8.8921   39.5576    8.0786 H       1  UNL1        0.2109
      4 C           8.6371   41.9175    9.2059 C.3     1  UNL1        0.1362
      5 C           9.4537   42.3063   10.4574 C.3     1  UNL1        0.1653
      6 C           8.8854   44.4810   10.5013 C.3     1  UNL1        0.2272
      7 C           8.0805   44.3703    9.2495 C.2     1  UNL1        0.2562
      8 O           8.7826   43.2780   11.2207 O.3     1  UNL1       -0.3426
      9 O           7.5768   45.3965    8.7199 O.2     1  UNL1       -0.2721
     10 N           7.8665   43.0641    8.6918 N.am    1  UNL1       -0.2697
     11 C           6.6695   42.8131    7.8909 C.3     1  UNL1        0.1233
     12 C           4.4306   43.3350    9.0204 C.ar    1  UNL1        0.1363
     13 C           5.5156   42.4528    8.7772 C.ar    1  UNL1        0.0317
     14 C           5.4721   41.1493    9.2924 C.ar    1  UNL1        0.0004
     15 C           4.3687   40.7078   10.0229 C.ar    1  UNL1       -0.0001
     16 C           3.2890   41.5637   10.2365 C.ar    1  UNL1        0.0031
     17 C           3.3210   42.8665    9.7348 C.ar    1  UNL1        0.0366
     18 C           3.4445   45.1745    7.6559 C.3     1  UNL1        0.2525
     19 O           4.3930   44.6667    8.5827 O.3     1  UNL1       -0.4717
     20 C          10.9089   40.9689    8.7561 C.ar    1  UNL1        0.0060
     21 C          12.1081   41.5765    8.3584 C.ar    1  UNL1       -0.0006
     22 C          13.3186   41.1855    8.9365 C.ar    1  UNL1        0.0144
     23 C          13.3448   40.1882    9.9169 C.ar    1  UNL1        0.0503
     24 C          12.1415   39.5846   10.3146 C.ar    1  UNL1        0.0144
     25 C          10.9301   39.9724    9.7363 C.ar    1  UNL1       -0.0006
     26 C          15.8995   39.9891    9.8928 C.2     1  UNL1        0.2264
     27 O          16.0268   40.4635    8.7320 O.2     1  UNL1       -0.2748
     28 N          14.6059   39.8129   10.4868 N.am    1  UNL1       -0.2839
     29 H          14.5813   39.3915   11.3763 H       1  UNL1        0.1549
     30 C          17.1154   39.6019   10.6628 C.3     1  UNL1        0.0900
     31 C          17.3639   38.1002   10.5886 C.3     1  UNL1        0.0359
     32 C          16.1016   37.3452   10.3216 C.ar    1  UNL1       -0.0217
     33 C          15.8426   36.8728    9.0296 C.ar    1  UNL1       -0.0043
     34 C          14.6674   36.1607    8.7641 C.ar    1  UNL1       -0.0003
     35 C          13.7440   35.9254    9.7890 C.ar    1  UNL1       -0.0000
     36 C          13.9947   36.4073   11.0791 C.ar    1  UNL1       -0.0003
     37 C          15.1700   37.1188   11.3447 C.ar    1  UNL1       -0.0043
@<TRIPOS>BOND
     1    18    19    1
     2    12    19    1
     3    13    14   ar
     4    11    13    1
     5    11    10    1
     6     4    10    1
     7     4     5    1
     8     4     1    1
     9     5     8    1
    10     6     8    1
    11     6     7    1
    12     7    10   am
    13     1     2    1
    14     1    20    1
    15    21    22   ar
    16    23    28    1
    17    23    24   ar
    18    30    26    1
    19    30    31    1
    20    31    32    1
    21    33    34   ar
    22    35    36   ar
    23    37    32   ar
    24    25    20   ar
    25    15    16   ar
    26    17    12   ar
    27    28    26   am
    28    12    13   ar
    29     7     9    2
    30    20    21   ar
    31    22    23   ar
    32    26    27    2
    33    32    33   ar
    34    34    35   ar
    35    36    37   ar
    36    24    25   ar
    37    14    15   ar
    38    16    17   ar
    39     2     3    1
    40    28    29    1
@<TRIPOS>MOLECULE
MolPort-019-935-284 67896687 CSSS00159285959 MCULE-2807596587 PubChem-56774746 ZINC000067896687 ZINC67896687
 37 40 0 0 0
SMALL
GASTEIGER

@<TRIPOS>ATOM
      1 C           7.4812   43.4860    9.2093 C.3     1  UNL1        0.1532
      2 O           7.6338   44.8706    9.1079 O.3     1  UNL1       -0.3783
      3 H           7.9293   45.0986    8.2126 H       1  UNL1        0.2109
      4 C           6.3993   42.9626    8.2535 C.3     1  UNL1        0.1362
      5 C           6.3743   43.8651    7.0008 C.3     1  UNL1        0.1653
      6 C           6.8327   42.2643    5.4902 C.3     1  UNL1        0.2272
      7 C           6.9784   41.2140    6.5404 C.2     1  UNL1        0.2562
      8 O           5.8458   43.1808    5.8919 O.3     1  UNL1       -0.3426
      9 O           7.3604   40.0528    6.2353 O.2     1  UNL1       -0.2721
     10 N           6.6358   41.5530    7.8935 N.am    1  UNL1       -0.2697
     11 C           6.1838   40.5023    8.8040 C.3     1  UNL1        0.1233
     12 C           5.0882   41.2031   11.0108 C.ar    1  UNL1        0.1363
     13 C           5.0143   40.9798    9.6109 C.ar    1  UNL1        0.0317
     14 C           3.8401   41.3148    8.9213 C.ar    1  UNL1        0.0004
     15 C           2.7557   41.8802    9.5924 C.ar    1  UNL1       -0.0001
     16 C           2.8384   42.1280   10.9619 C.ar    1  UNL1        0.0031
     17 C           3.9989   41.7939   11.6630 C.ar    1  UNL1        0.0366
     18 C           7.2542   41.7675   12.1099 C.3     1  UNL1        0.2525
     19 O           6.1997   40.8691   11.7977 O.3     1  UNL1       -0.4717
     20 C           8.7962   42.8162    8.9587 C.ar    1  UNL1        0.0060
     21 C           9.6184   42.4207   10.0231 C.ar    1  UNL1       -0.0006
     22 C          10.8450   41.8011    9.7700 C.ar    1  UNL1        0.0144
     23 C          11.2618   41.5680    8.4553 C.ar    1  UNL1        0.0503
     24 C          10.4341   41.9626    7.3924 C.ar    1  UNL1        0.0144
     25 C           9.2082   42.5844    7.6431 C.ar    1  UNL1       -0.0006
     26 C          13.3811   40.3557    9.2333 C.2     1  UNL1        0.2264
     27 O          13.0920   40.4230   10.4583 O.2     1  UNL1       -0.2748
     28 N          12.5270   40.9304    8.2345 N.am    1  UNL1       -0.2839
     29 H          12.8414   40.8822    7.3028 H       1  UNL1        0.1549
     30 C          14.6348   39.6676    8.8138 C.3     1  UNL1        0.0900
     31 C          15.8639   40.3415    9.4117 C.3     1  UNL1        0.0359
     32 C          16.2309   41.5825    8.6633 C.ar    1  UNL1       -0.0217
     33 C          17.4542   42.2092    8.9280 C.ar    1  UNL1       -0.0043
     34 C          17.8144   43.3695    8.2332 C.ar    1  UNL1       -0.0003
     35 C          16.9482   43.9105    7.2764 C.ar    1  UNL1       -0.0000
     36 C          15.7188   43.2927    7.0186 C.ar    1  UNL1       -0.0003
     37 C          15.3589   42.1324    7.7129 C.ar    1  UNL1       -0.0043
@<TRIPOS>BOND
     1    18    19    1
     2    12    19    1
     3    13    14   ar
     4    11    13    1
     5    11    10    1
     6     4    10    1
     7     4     5    1
     8     4     1    1
     9     5     8    1
    10     6     8    1
    11     6     7    1
    12     7    10   am
    13     1     2    1
    14     1    20    1
    15    21    22   ar
    16    23    28    1
    17    23    24   ar
    18    30    26    1
    19    30    31    1
    20    31    32    1
    21    33    34   ar
    22    35    36   ar
    23    37    32   ar
    24    25    20   ar
    25    15    16   ar
    26    17    12   ar
    27    28    26   am
    28    12    13   ar
    29     7     9    2
    30    20    21   ar
    31    22    23   ar
    32    26    27    2
    33    32    33   ar
    34    34    35   ar
    35    36    37   ar
    36    24    25   ar
    37    14    15   ar
    38    16    17   ar
    39     2     3    1
    40    28    29    1
