@<TRIPOS>MOLECULE
MolPort-016-948-781 ChemDiv-V027-9388 MCULE-5124427316 PubChem-1029328 ZINC000000697005 ZINC00697005
 30 32 0 0 0
SMALL
GASTEIGER

@<TRIPOS>ATOM
      1 C          10.4358   37.3146    3.1143 C.ar    1  UNL1        0.3383
      2 C          10.0630   35.3247    3.6579 C.ar    1  UNL1        0.1681
      3 N           8.8671   35.9082    3.4038 N.ar    1  UNL1       -0.2081
      4 N           9.1003   37.1647    3.0654 N.ar    1  UNL1       -0.1077
      5 N          11.0838   36.1868    3.4785 N.ar    1  UNL1       -0.1739
      6 C          10.2716   33.9436    4.1300 C.ar    1  UNL1        0.0321
      7 C          10.9694   32.9853    3.3624 C.ar    1  UNL1       -0.0189
      8 C          11.5193   33.3058    2.0129 C.3     1  UNL1        0.0311
      9 C          11.1258   31.6846    3.8523 C.ar    1  UNL1       -0.0042
     10 C          10.5852   31.3261    5.0893 C.ar    1  UNL1       -0.0003
     11 C           9.8764   32.2657    5.8404 C.ar    1  UNL1        0.0001
     12 C           9.7163   33.5676    5.3596 C.ar    1  UNL1        0.0027
     13 C           5.0031   34.1246    3.2905 C.ar    1  UNL1        0.0505
     14 C           5.4782   34.8698    2.2023 C.ar    1  UNL1        0.0162
     15 C           6.7441   35.4595    2.2481 C.ar    1  UNL1        0.0205
     16 C           7.5521   35.3217    3.3853 C.ar    1  UNL1        0.0847
     17 C           7.0778   34.5646    4.4665 C.ar    1  UNL1        0.0205
     18 C           5.8118   33.9761    4.4207 C.ar    1  UNL1        0.0162
     19 C           2.8908   33.2441    2.1301 C.2     1  UNL1        0.2563
     20 O           3.2870   33.5393    0.9720 O.2     1  UNL1       -0.2720
     21 N           3.7093   33.5059    3.2804 N.am    1  UNL1       -0.2819
     22 H           3.3444   33.2323    4.1529 H       1  UNL1        0.1549
     23 C           1.5508   32.6015    2.2883 C.3     1  UNL1        0.2273
     24 C          -0.4517   33.1659    3.0223 C.3     1  UNL1        0.1748
     25 O           0.5240   33.5273    2.0943 O.3     1  UNL1       -0.3417
     26 O          11.0736   38.5188    2.8158 O.3     1  UNL1       -0.4457
     27 C          10.5689   39.7719    3.2664 C.3     1  UNL1        0.2086
     28 C          10.1925   39.7250    4.7440 C.3     1  UNL1        0.0439
     29 C          11.3412   39.1934    5.5795 C.3     1  UNL1        0.0038
     30 C           8.9480   38.8882    4.9716 C.3     1  UNL1        0.0038
@<TRIPOS>BOND
     1    24    25    1
     2    23    25    1
     3    23    19    1
     4    19    21   am
     5    14    15   ar
     6    16    17   ar
     7    16     3    1
     8    18    13   ar
     9     1    26    1
    10     1     5   ar
    11    27    26    1
    12    27    28    1
    13    28    29    1
    14    28    30    1
    15     2     6    1
    16     2     3   ar
    17     7     9   ar
    18     8     7    1
    19    10    11   ar
    20    12     6   ar
    21    21    13    1
    22     3     4   ar
    23    19    20    2
    24    13    14   ar
    25    15    16   ar
    26    17    18   ar
    27     1     4   ar
    28     2     5   ar
    29     6     7   ar
    30     9    10   ar
    31    11    12   ar
    32    21    22    1
@<TRIPOS>MOLECULE
MolPort-016-948-781 ChemDiv-V027-9388 MCULE-5124427316 PubChem-1029328 ZINC000000697005 ZINC00697005
 30 32 0 0 0
SMALL
GASTEIGER

@<TRIPOS>ATOM
      1 C          16.9981   39.8507    9.9930 C.ar    1  UNL1        0.3383
      2 C          15.8745   41.1826    8.8278 C.ar    1  UNL1        0.1681
      3 N          15.0019   40.3990    9.5059 N.ar    1  UNL1       -0.2081
      4 N          15.7092   39.5552   10.2376 N.ar    1  UNL1       -0.1077
      5 N          17.1529   40.8670    9.1168 N.ar    1  UNL1       -0.1739
      6 C          15.5228   42.2223    7.8433 C.ar    1  UNL1        0.0321
      7 C          16.2295   43.4417    7.7544 C.ar    1  UNL1       -0.0189
      8 C          17.3635   43.7635    8.6693 C.3     1  UNL1        0.0311
      9 C          15.8440   44.3997    6.8112 C.ar    1  UNL1       -0.0042
     10 C          14.7571   44.1619    5.9666 C.ar    1  UNL1       -0.0003
     11 C          14.0434   42.9661    6.0670 C.ar    1  UNL1        0.0001
     12 C          14.4222   42.0029    7.0054 C.ar    1  UNL1        0.0027
     13 C          10.7574   40.6658    9.6991 C.ar    1  UNL1        0.0505
     14 C          11.5090   40.3901   10.8498 C.ar    1  UNL1        0.0162
     15 C          12.9013   40.2960   10.7790 C.ar    1  UNL1        0.0205
     16 C          13.5644   40.4669    9.5559 C.ar    1  UNL1        0.0847
     17 C          12.8093   40.7550    8.4096 C.ar    1  UNL1        0.0205
     18 C          11.4173   40.8480    8.4806 C.ar    1  UNL1        0.0162
     19 C           8.5543   41.7942   10.3745 C.2     1  UNL1        0.2563
     20 O           9.1149   42.7490   10.9740 O.2     1  UNL1       -0.2720
     21 N           9.3273   40.7687    9.7325 N.am    1  UNL1       -0.2819
     22 H           8.8233   40.0627    9.2669 H       1  UNL1        0.1549
     23 C           7.0610   41.7516   10.3315 C.3     1  UNL1        0.2273
     24 C           5.2220   41.1031   11.3633 C.3     1  UNL1        0.1748
     25 O           6.5282   41.5278   11.6023 O.3     1  UNL1       -0.3417
     26 O          18.0575   39.1685   10.5914 O.3     1  UNL1       -0.4457
     27 C          19.0599   38.5093    9.8242 C.3     1  UNL1        0.2086
     28 C          18.7996   37.0088    9.7347 C.3     1  UNL1        0.0439
     29 C          19.3853   36.2845   10.9316 C.3     1  UNL1        0.0038
     30 C          19.3535   36.4271    8.4479 C.3     1  UNL1        0.0038
@<TRIPOS>BOND
     1    24    25    1
     2    23    25    1
     3    23    19    1
     4    19    21   am
     5    14    15   ar
     6    16    17   ar
     7    16     3    1
     8    18    13   ar
     9     1    26    1
    10     1     5   ar
    11    27    26    1
    12    27    28    1
    13    28    29    1
    14    28    30    1
    15     2     6    1
    16     2     3   ar
    17     7     9   ar
    18     8     7    1
    19    10    11   ar
    20    12     6   ar
    21    21    13    1
    22     3     4   ar
    23    19    20    2
    24    13    14   ar
    25    15    16   ar
    26    17    18   ar
    27     1     4   ar
    28     2     5   ar
    29     6     7   ar
    30     9    10   ar
    31    11    12   ar
    32    21    22    1
@<TRIPOS>MOLECULE
MolPort-016-948-781 ChemDiv-V027-9388 MCULE-5124427316 PubChem-1029328 ZINC000000697005 ZINC00697005
 30 32 0 0 0
SMALL
GASTEIGER

@<TRIPOS>ATOM
      1 C           8.8575   39.9955    6.5467 C.ar    1  UNL1        0.3383
      2 C           9.9330   40.4627    8.2843 C.ar    1  UNL1        0.1681
      3 N          10.7410   40.7123    7.2260 N.ar    1  UNL1       -0.2081
      4 N          10.0657   40.4135    6.1294 N.ar    1  UNL1       -0.1077
      5 N           8.7252   40.0113    7.8909 N.ar    1  UNL1       -0.1739
      6 C          10.2997   40.5955    9.7062 C.ar    1  UNL1        0.0321
      7 C           9.6344   41.4906   10.5726 C.ar    1  UNL1       -0.0189
      8 C           8.5324   42.3762   10.0955 C.3     1  UNL1        0.0311
      9 C          10.0330   41.5869   11.9097 C.ar    1  UNL1       -0.0042
     10 C          11.0924   40.8126   12.3885 C.ar    1  UNL1       -0.0003
     11 C          11.7658   39.9427   11.5288 C.ar    1  UNL1        0.0001
     12 C          11.3737   39.8390   10.1918 C.ar    1  UNL1        0.0027
     13 C          14.6734   42.3406    7.1291 C.ar    1  UNL1        0.0505
     14 C          14.3483   41.3109    8.0231 C.ar    1  UNL1        0.0162
     15 C          13.0539   40.7857    8.0560 C.ar    1  UNL1        0.0205
     16 C          12.0612   41.2866    7.2024 C.ar    1  UNL1        0.0847
     17 C          12.3944   42.3080    6.3008 C.ar    1  UNL1        0.0205
     18 C          13.6882   42.8336    6.2689 C.ar    1  UNL1        0.0162
     19 C          16.4994   43.7902    6.0578 C.2     1  UNL1        0.2563
     20 O          15.7711   44.1742    5.1053 O.2     1  UNL1       -0.2720
     21 N          15.9902   42.9053    7.0674 N.am    1  UNL1       -0.2819
     22 H          16.6094   42.6608    7.7927 H       1  UNL1        0.1549
     23 C          17.9087   44.2829    6.1277 C.3     1  UNL1        0.2273
     24 C          18.3202   43.0512    7.9112 C.3     1  UNL1        0.1748
     25 O          18.3462   44.3669    7.4508 O.3     1  UNL1       -0.3417
     26 O           7.8523   39.5900    5.6687 O.3     1  UNL1       -0.4457
     27 C           6.4999   39.4385    6.0881 C.3     1  UNL1        0.2086
     28 C           5.8727   40.7809    6.4508 C.3     1  UNL1        0.0439
     29 C           6.7086   41.9305    5.9218 C.3     1  UNL1        0.0038
     30 C           5.6844   40.9165    7.9499 C.3     1  UNL1        0.0038
@<TRIPOS>BOND
     1    24    25    1
     2    23    25    1
     3    23    19    1
     4    19    21   am
     5    14    15   ar
     6    16    17   ar
     7    16     3    1
     8    18    13   ar
     9     1    26    1
    10     1     5   ar
    11    27    26    1
    12    27    28    1
    13    28    29    1
    14    28    30    1
    15     2     6    1
    16     2     3   ar
    17     7     9   ar
    18     8     7    1
    19    10    11   ar
    20    12     6   ar
    21    21    13    1
    22     3     4   ar
    23    19    20    2
    24    13    14   ar
    25    15    16   ar
    26    17    18   ar
    27     1     4   ar
    28     2     5   ar
    29     6     7   ar
    30     9    10   ar
    31    11    12   ar
    32    21    22    1
@<TRIPOS>MOLECULE
MolPort-016-948-781 ChemDiv-V027-9388 MCULE-5124427316 PubChem-1029328 ZINC000000697005 ZINC00697005
 30 32 0 0 0
SMALL
GASTEIGER

@<TRIPOS>ATOM
      1 C           8.9937   38.8487    7.0985 C.ar    1  UNL1        0.3383
      2 C          10.6876   38.7663    8.3306 C.ar    1  UNL1        0.1681
      3 N          10.9324   39.6820    7.3627 N.ar    1  UNL1       -0.2081
      4 N           9.8667   39.7316    6.5819 N.ar    1  UNL1       -0.1077
      5 N           9.4622   38.2200    8.1984 N.ar    1  UNL1       -0.1739
      6 C          11.6300   38.3426    9.3825 C.ar    1  UNL1        0.0321
      7 C          11.8674   39.1220   10.5359 C.ar    1  UNL1       -0.0189
      8 C          11.1953   40.4368   10.7504 C.3     1  UNL1        0.0311
      9 C          12.7832   38.6792   11.4958 C.ar    1  UNL1       -0.0042
     10 C          13.4723   37.4780   11.3133 C.ar    1  UNL1       -0.0003
     11 C          13.2553   36.7162   10.1636 C.ar    1  UNL1        0.0001
     12 C          12.3414   37.1500    9.2001 C.ar    1  UNL1        0.0027
     13 C          14.2471   42.3138    6.9040 C.ar    1  UNL1        0.0505
     14 C          13.0718   42.5097    6.1654 C.ar    1  UNL1        0.0162
     15 C          11.9899   41.6381    6.3143 C.ar    1  UNL1        0.0205
     16 C          12.0679   40.5518    7.1967 C.ar    1  UNL1        0.0847
     17 C          13.2410   40.3672    7.9430 C.ar    1  UNL1        0.0205
     18 C          14.3229   41.2381    7.7931 C.ar    1  UNL1        0.0162
     19 C          15.7083   44.0065    5.6457 C.2     1  UNL1        0.2563
     20 O          14.9680   44.0348    4.6277 O.2     1  UNL1       -0.2720
     21 N          15.3782   43.1864    6.7771 N.am    1  UNL1       -0.2819
     22 H          15.9921   43.2274    7.5457 H       1  UNL1        0.1549
     23 C          16.9386   44.8549    5.6624 C.3     1  UNL1        0.2273
     24 C          18.1283   44.1006    7.3603 C.3     1  UNL1        0.1748
     25 O          18.0689   44.0944    5.9674 O.3     1  UNL1       -0.3417
     26 O           7.7348   38.6166    6.5442 O.3     1  UNL1       -0.4457
     27 C           6.8070   39.6713    6.3106 C.3     1  UNL1        0.2086
     28 C           6.9966   40.8137    7.3037 C.3     1  UNL1        0.0439
     29 C           5.8449   40.8723    8.2889 C.3     1  UNL1        0.0038
     30 C           7.1463   42.1453    6.5931 C.3     1  UNL1        0.0038
@<TRIPOS>BOND
     1    24    25    1
     2    23    25    1
     3    23    19    1
     4    19    21   am
     5    14    15   ar
     6    16    17   ar
     7    16     3    1
     8    18    13   ar
     9     1    26    1
    10     1     5   ar
    11    27    26    1
    12    27    28    1
    13    28    29    1
    14    28    30    1
    15     2     6    1
    16     2     3   ar
    17     7     9   ar
    18     8     7    1
    19    10    11   ar
    20    12     6   ar
    21    21    13    1
    22     3     4   ar
    23    19    20    2
    24    13    14   ar
    25    15    16   ar
    26    17    18   ar
    27     1     4   ar
    28     2     5   ar
    29     6     7   ar
    30     9    10   ar
    31    11    12   ar
    32    21    22    1
@<TRIPOS>MOLECULE
MolPort-016-948-781 ChemDiv-V027-9388 MCULE-5124427316 PubChem-1029328 ZINC000000697005 ZINC00697005
 30 32 0 0 0
SMALL
GASTEIGER

@<TRIPOS>ATOM
      1 C          16.3810   39.9812    9.9340 C.ar    1  UNL1        0.3383
      2 C          15.6240   41.4109    8.6009 C.ar    1  UNL1        0.1681
      3 N          14.5897   40.6254    8.9860 N.ar    1  UNL1       -0.2081
      4 N          15.0665   39.7201    9.8231 N.ar    1  UNL1       -0.1077
      5 N          16.7779   41.0350    9.1880 N.ar    1  UNL1       -0.1739
      6 C          15.5599   42.5120    7.6224 C.ar    1  UNL1        0.0321
      7 C          16.5048   43.5613    7.6101 C.ar    1  UNL1       -0.0189
      8 C          17.6153   43.6330    8.6041 C.3     1  UNL1        0.0311
      9 C          16.3882   44.5888    6.6685 C.ar    1  UNL1       -0.0042
     10 C          15.3360   44.5887    5.7497 C.ar    1  UNL1       -0.0003
     11 C          14.3882   43.5638    5.7736 C.ar    1  UNL1        0.0001
     12 C          14.4975   42.5326    6.7099 C.ar    1  UNL1        0.0027
     13 C          10.4421   40.8915    8.0632 C.ar    1  UNL1        0.0505
     14 C          11.3247   40.2263    7.2008 C.ar    1  UNL1        0.0162
     15 C          12.6863   40.1488    7.5048 C.ar    1  UNL1        0.0205
     16 C          13.1895   40.7422    8.6708 C.ar    1  UNL1        0.0847
     17 C          12.3008   41.3957    9.5370 C.ar    1  UNL1        0.0205
     18 C          10.9398   41.4739    9.2322 C.ar    1  UNL1        0.0162
     19 C           8.2616   40.1125    6.9579 C.2     1  UNL1        0.2563
     20 O           8.7874   39.1128    6.4016 O.2     1  UNL1       -0.2720
     21 N           9.0391   40.9926    7.7840 N.am    1  UNL1       -0.2819
     22 H           8.5591   41.7435    8.2024 H       1  UNL1        0.1549
     23 C           6.8027   40.3633    6.7526 C.3     1  UNL1        0.2273
     24 C           6.5837   42.4422    6.0471 C.3     1  UNL1        0.1748
     25 O           6.5806   41.1212    5.6014 O.3     1  UNL1       -0.3417
     26 O          17.2360   39.2314   10.7420 O.3     1  UNL1       -0.4457
     27 C          17.3183   37.8133   10.6418 C.3     1  UNL1        0.2086
     28 C          18.5495   37.3785    9.8530 C.3     1  UNL1        0.0439
     29 C          19.0641   36.0396   10.3458 C.3     1  UNL1        0.0038
     30 C          19.6491   38.4210    9.9247 C.3     1  UNL1        0.0038
@<TRIPOS>BOND
     1    24    25    1
     2    23    25    1
     3    23    19    1
     4    19    21   am
     5    14    15   ar
     6    16    17   ar
     7    16     3    1
     8    18    13   ar
     9     1    26    1
    10     1     5   ar
    11    27    26    1
    12    27    28    1
    13    28    29    1
    14    28    30    1
    15     2     6    1
    16     2     3   ar
    17     7     9   ar
    18     8     7    1
    19    10    11   ar
    20    12     6   ar
    21    21    13    1
    22     3     4   ar
    23    19    20    2
    24    13    14   ar
    25    15    16   ar
    26    17    18   ar
    27     1     4   ar
    28     2     5   ar
    29     6     7   ar
    30     9    10   ar
    31    11    12   ar
    32    21    22    1
@<TRIPOS>MOLECULE
MolPort-016-948-781 ChemDiv-V027-9388 MCULE-5124427316 PubChem-1029328 ZINC000000697005 ZINC00697005
 30 32 0 0 0
SMALL
GASTEIGER

@<TRIPOS>ATOM
      1 C          13.4844   42.2163    6.8201 C.ar    1  UNL1        0.3383
      2 C          12.3399   40.7877    7.8414 C.ar    1  UNL1        0.1681
      3 N          11.5045   41.7858    7.4659 N.ar    1  UNL1       -0.2081
      4 N          12.2258   42.6900    6.8258 N.ar    1  UNL1       -0.1077
      5 N          13.6059   41.0239    7.4430 N.ar    1  UNL1       -0.1739
      6 C          11.9723   39.6016    8.6365 C.ar    1  UNL1        0.0321
      7 C          12.6746   39.2343    9.8053 C.ar    1  UNL1       -0.0189
      8 C          13.8496   40.0124   10.2956 C.3     1  UNL1        0.0311
      9 C          12.2923   38.0906   10.5137 C.ar    1  UNL1       -0.0042
     10 C          11.2289   37.3041   10.0644 C.ar    1  UNL1       -0.0003
     11 C          10.5466   37.6532    8.8973 C.ar    1  UNL1        0.0001
     12 C          10.9208   38.7947    8.1840 C.ar    1  UNL1        0.0027
     13 C           7.2723   41.9843    7.8830 C.ar    1  UNL1        0.0505
     14 C           7.8521   41.5264    6.6916 C.ar    1  UNL1        0.0162
     15 C           9.2418   41.4707    6.5575 C.ar    1  UNL1        0.0205
     16 C          10.0747   41.8800    7.6081 C.ar    1  UNL1        0.0847
     17 C           9.4901   42.3254    8.8028 C.ar    1  UNL1        0.0205
     18 C           8.1008   42.3819    8.9361 C.ar    1  UNL1        0.0162
     19 C           5.0891   41.5107    9.1450 C.2     1  UNL1        0.2563
     20 O           5.6556   40.9096   10.0953 O.2     1  UNL1       -0.2720
     21 N           5.8506   42.0565    8.0570 N.am    1  UNL1       -0.2819
     22 H           5.3441   42.5296    7.3578 H       1  UNL1        0.1549
     23 C           3.6022   41.6582    9.1738 C.3     1  UNL1        0.2273
     24 C           2.7920   42.2005   11.1529 C.3     1  UNL1        0.1748
     25 O           3.2214   42.7556    9.9482 O.3     1  UNL1       -0.3417
     26 O          14.5469   42.8982    6.2267 O.3     1  UNL1       -0.4457
     27 C          15.4330   43.7183    6.9817 C.3     1  UNL1        0.2086
     28 C          16.7882   43.0456    7.1775 C.3     1  UNL1        0.0439
     29 C          16.8139   42.2423    8.4638 C.3     1  UNL1        0.0038
     30 C          17.9156   44.0603    7.1709 C.3     1  UNL1        0.0038
@<TRIPOS>BOND
     1    24    25    1
     2    23    25    1
     3    23    19    1
     4    19    21   am
     5    14    15   ar
     6    16    17   ar
     7    16     3    1
     8    18    13   ar
     9     1    26    1
    10     1     5   ar
    11    27    26    1
    12    27    28    1
    13    28    29    1
    14    28    30    1
    15     2     6    1
    16     2     3   ar
    17     7     9   ar
    18     8     7    1
    19    10    11   ar
    20    12     6   ar
    21    21    13    1
    22     3     4   ar
    23    19    20    2
    24    13    14   ar
    25    15    16   ar
    26    17    18   ar
    27     1     4   ar
    28     2     5   ar
    29     6     7   ar
    30     9    10   ar
    31    11    12   ar
    32    21    22    1
@<TRIPOS>MOLECULE
MolPort-016-948-781 ChemDiv-V027-9388 MCULE-5124427316 PubChem-1029328 ZINC000000697005 ZINC00697005
 30 32 0 0 0
SMALL
GASTEIGER

@<TRIPOS>ATOM
      1 C           7.9505   41.8108    7.4070 C.ar    1  UNL1        0.3383
      2 C           9.5167   40.6630    8.1968 C.ar    1  UNL1        0.1681
      3 N          10.0702   41.6424    7.4420 N.ar    1  UNL1       -0.2081
      4 N           9.0834   42.3643    6.9392 N.ar    1  UNL1       -0.1077
      5 N           8.1710   40.7420    8.2030 N.ar    1  UNL1       -0.1739
      6 C          10.2463   39.5886    8.8948 C.ar    1  UNL1        0.0321
      7 C          10.1247   38.2324    8.5201 C.ar    1  UNL1       -0.0189
      8 C           9.2300   37.7999    7.4070 C.3     1  UNL1        0.0311
      9 C          10.8288   37.2519    9.2263 C.ar    1  UNL1       -0.0042
     10 C          11.6404   37.6054   10.3068 C.ar    1  UNL1       -0.0003
     11 C          11.7455   38.9431   10.6929 C.ar    1  UNL1        0.0001
     12 C          11.0469   39.9295    9.9924 C.ar    1  UNL1        0.0027
     13 C          14.1970   42.5380    6.9019 C.ar    1  UNL1        0.0505
     14 C          13.6475   42.4501    8.1885 C.ar    1  UNL1        0.0162
     15 C          12.2907   42.1635    8.3596 C.ar    1  UNL1        0.0205
     16 C          11.4592   41.9690    7.2480 C.ar    1  UNL1        0.0847
     17 C          12.0160   42.0454    5.9630 C.ar    1  UNL1        0.0205
     18 C          13.3723   42.3329    5.7923 C.ar    1  UNL1        0.0162
     19 C          16.1365   44.0624    6.1964 C.2     1  UNL1        0.2563
     20 O          15.3944   45.0421    5.9229 O.2     1  UNL1       -0.2720
     21 N          15.5843   42.8312    6.6870 N.am    1  UNL1       -0.2819
     22 H          16.2246   42.1137    6.8977 H       1  UNL1        0.1549
     23 C          17.6126   44.2067    6.0121 C.3     1  UNL1        0.2273
     24 C          17.3598   43.9185    8.1847 C.3     1  UNL1        0.1748
     25 O          18.2536   44.4117    7.2352 O.3     1  UNL1       -0.3417
     26 O           6.6830   42.3019    7.0939 O.3     1  UNL1       -0.4457
     27 C           6.4592   43.6755    6.7923 C.3     1  UNL1        0.2086
     28 C           6.0059   44.4524    8.0244 C.3     1  UNL1        0.0439
     29 C           7.1897   44.8247    8.8964 C.3     1  UNL1        0.0038
     30 C           4.9882   43.6673    8.8299 C.3     1  UNL1        0.0038
@<TRIPOS>BOND
     1    24    25    1
     2    23    25    1
     3    23    19    1
     4    19    21   am
     5    14    15   ar
     6    16    17   ar
     7    16     3    1
     8    18    13   ar
     9     1    26    1
    10     1     5   ar
    11    27    26    1
    12    27    28    1
    13    28    29    1
    14    28    30    1
    15     2     6    1
    16     2     3   ar
    17     7     9   ar
    18     8     7    1
    19    10    11   ar
    20    12     6   ar
    21    21    13    1
    22     3     4   ar
    23    19    20    2
    24    13    14   ar
    25    15    16   ar
    26    17    18   ar
    27     1     4   ar
    28     2     5   ar
    29     6     7   ar
    30     9    10   ar
    31    11    12   ar
    32    21    22    1
@<TRIPOS>MOLECULE
MolPort-016-948-781 ChemDiv-V027-9388 MCULE-5124427316 PubChem-1029328 ZINC000000697005 ZINC00697005
 30 32 0 0 0
SMALL
GASTEIGER

@<TRIPOS>ATOM
      1 C          14.1841   42.6395    6.7561 C.ar    1  UNL1        0.3383
      2 C          13.7459   41.3092    8.3157 C.ar    1  UNL1        0.1681
      3 N          12.6158   42.0056    8.0450 N.ar    1  UNL1       -0.2081
      4 N          12.8920   42.8485    7.0647 N.ar    1  UNL1       -0.1077
      5 N          14.7623   41.6809    7.5120 N.ar    1  UNL1       -0.1739
      6 C          13.9113   40.3043    9.3819 C.ar    1  UNL1        0.0321
      7 C          15.1653   40.0377    9.9742 C.ar    1  UNL1       -0.0189
      8 C          16.4072   40.7416    9.5399 C.3     1  UNL1        0.0311
      9 C          15.2679   39.0631   10.9720 C.ar    1  UNL1       -0.0042
     10 C          14.1403   38.3445   11.3761 C.ar    1  UNL1       -0.0003
     11 C          12.9035   38.5911   10.7771 C.ar    1  UNL1        0.0001
     12 C          12.7913   39.5637    9.7804 C.ar    1  UNL1        0.0027
     13 C           8.7321   41.4816    9.7083 C.ar    1  UNL1        0.0505
     14 C           9.1160   40.7821    8.5558 C.ar    1  UNL1        0.0162
     15 C          10.3893   40.9638    8.0098 C.ar    1  UNL1        0.0205
     16 C          11.2963   41.8541    8.6012 C.ar    1  UNL1        0.0847
     17 C          10.9123   42.5422    9.7615 C.ar    1  UNL1        0.0205
     18 C           9.6390   42.3610   10.3065 C.ar    1  UNL1        0.0162
     19 C           6.1888   41.8138    9.7777 C.2     1  UNL1        0.2563
     20 O           6.1440   42.4424    8.6877 O.2     1  UNL1       -0.2720
     21 N           7.4339   41.3219   10.2966 N.am    1  UNL1       -0.2819
     22 H           7.3922   40.8232   11.1444 H       1  UNL1        0.1549
     23 C           4.9148   41.5759   10.5220 C.3     1  UNL1        0.2273
     24 C           2.8564   41.3878    9.7508 C.3     1  UNL1        0.1748
     25 O           4.0746   40.7130    9.8161 O.3     1  UNL1       -0.3417
     26 O          14.8469   43.3481    5.7539 O.3     1  UNL1       -0.4457
     27 C          15.3690   44.6548    5.9727 C.3     1  UNL1        0.2086
     28 C          16.8334   44.6084    6.3978 C.3     1  UNL1        0.0439
     29 C          17.6336   43.6970    5.4871 C.3     1  UNL1        0.0038
     30 C          16.9767   44.1639    7.8409 C.3     1  UNL1        0.0038
@<TRIPOS>BOND
     1    24    25    1
     2    23    25    1
     3    23    19    1
     4    19    21   am
     5    14    15   ar
     6    16    17   ar
     7    16     3    1
     8    18    13   ar
     9     1    26    1
    10     1     5   ar
    11    27    26    1
    12    27    28    1
    13    28    29    1
    14    28    30    1
    15     2     6    1
    16     2     3   ar
    17     7     9   ar
    18     8     7    1
    19    10    11   ar
    20    12     6   ar
    21    21    13    1
    22     3     4   ar
    23    19    20    2
    24    13    14   ar
    25    15    16   ar
    26    17    18   ar
    27     1     4   ar
    28     2     5   ar
    29     6     7   ar
    30     9    10   ar
    31    11    12   ar
    32    21    22    1
@<TRIPOS>MOLECULE
MolPort-016-948-781 ChemDiv-V027-9388 MCULE-5124427316 PubChem-1029328 ZINC000000697005 ZINC00697005
 30 32 0 0 0
SMALL
GASTEIGER

@<TRIPOS>ATOM
      1 C          14.6928   39.3651    9.5096 C.ar    1  UNL1        0.3383
      2 C          14.4916   41.0683    8.3043 C.ar    1  UNL1        0.1681
      3 N          13.2469   40.5914    8.5463 N.ar    1  UNL1       -0.2081
      4 N          13.3725   39.5143    9.3025 N.ar    1  UNL1       -0.1077
      5 N          15.4362   40.3176    8.9057 N.ar    1  UNL1       -0.1739
      6 C          14.8277   42.2226    7.4508 C.ar    1  UNL1        0.0321
      7 C          16.0488   42.9203    7.5786 C.ar    1  UNL1       -0.0189
      8 C          17.0665   42.5460    8.6036 C.3     1  UNL1        0.0311
      9 C          16.3103   44.0180    6.7523 C.ar    1  UNL1       -0.0042
     10 C          15.3656   44.4346    5.8114 C.ar    1  UNL1       -0.0003
     11 C          14.1486   43.7598    5.6978 C.ar    1  UNL1        0.0001
     12 C          13.8794   42.6615    6.5182 C.ar    1  UNL1        0.0027
     13 C           9.4405   42.1517    7.4503 C.ar    1  UNL1        0.0505
     14 C          10.1150   41.2564    6.6084 C.ar    1  UNL1        0.0162
     15 C          11.3676   40.7536    6.9696 C.ar    1  UNL1        0.0205
     16 C          11.9705   41.1439    8.1734 C.ar    1  UNL1        0.0847
     17 C          11.2863   42.0298    9.0185 C.ar    1  UNL1        0.0205
     18 C          10.0345   42.5332    8.6566 C.ar    1  UNL1        0.0162
     19 C           7.3945   43.6413    7.8732 C.2     1  UNL1        0.2563
     20 O           7.8428   44.1174    8.9491 O.2     1  UNL1       -0.2720
     21 N           8.1545   42.6895    7.1128 N.am    1  UNL1       -0.2819
     22 H           7.7509   42.3732    6.2724 H       1  UNL1        0.1549
     23 C           6.0546   44.0946    7.3909 C.3     1  UNL1        0.2273
     24 C           4.3790   43.7839    8.7919 C.3     1  UNL1        0.1748
     25 O           5.3388   44.7212    8.4126 O.3     1  UNL1       -0.3417
     26 O          15.2263   38.3270   10.2736 O.3     1  UNL1       -0.4457
     27 C          15.6520   37.1007    9.6881 C.3     1  UNL1        0.2086
     28 C          14.4697   36.1861    9.3830 C.3     1  UNL1        0.0439
     29 C          13.5905   36.0104   10.6063 C.3     1  UNL1        0.0038
     30 C          14.9329   34.8350    8.8723 C.3     1  UNL1        0.0038
@<TRIPOS>BOND
     1    24    25    1
     2    23    25    1
     3    23    19    1
     4    19    21   am
     5    14    15   ar
     6    16    17   ar
     7    16     3    1
     8    18    13   ar
     9     1    26    1
    10     1     5   ar
    11    27    26    1
    12    27    28    1
    13    28    29    1
    14    28    30    1
    15     2     6    1
    16     2     3   ar
    17     7     9   ar
    18     8     7    1
    19    10    11   ar
    20    12     6   ar
    21    21    13    1
    22     3     4   ar
    23    19    20    2
    24    13    14   ar
    25    15    16   ar
    26    17    18   ar
    27     1     4   ar
    28     2     5   ar
    29     6     7   ar
    30     9    10   ar
    31    11    12   ar
    32    21    22    1
@<TRIPOS>MOLECULE
MolPort-016-948-781 ChemDiv-V027-9388 MCULE-5124427316 PubChem-1029328 ZINC000000697005 ZINC00697005
 30 32 0 0 0
SMALL
GASTEIGER

@<TRIPOS>ATOM
      1 C           9.2022   39.5333    5.6972 C.ar    1  UNL1        0.3383
      2 C           9.6717   40.4997    7.4971 C.ar    1  UNL1        0.1681
      3 N          10.7649   40.5700    6.7002 N.ar    1  UNL1       -0.2081
      4 N          10.4720   39.9566    5.5663 N.ar    1  UNL1       -0.1077
      5 N           8.6562   39.8528    6.8906 N.ar    1  UNL1       -0.1739
      6 C           9.5731   40.9993    8.8809 C.ar    1  UNL1        0.0321
      7 C           8.8639   42.1766    9.2051 C.ar    1  UNL1       -0.0189
      8 C           8.1889   43.0023    8.1616 C.3     1  UNL1        0.0311
      9 C           8.8148   42.6133   10.5329 C.ar    1  UNL1       -0.0042
     10 C           9.4732   41.8986   11.5363 C.ar    1  UNL1       -0.0003
     11 C          10.1929   40.7460   11.2151 C.ar    1  UNL1        0.0001
     12 C          10.2464   40.3017    9.8917 C.ar    1  UNL1        0.0027
     13 C          14.4999   42.5119    7.3348 C.ar    1  UNL1        0.0505
     14 C          14.1637   41.3569    8.0548 C.ar    1  UNL1        0.0162
     15 C          12.9332   40.7282    7.8479 C.ar    1  UNL1        0.0205
     16 C          12.0150   41.2482    6.9252 C.ar    1  UNL1        0.0847
     17 C          12.3609   42.3966    6.1980 C.ar    1  UNL1        0.0205
     18 C          13.5908   43.0255    6.4057 C.ar    1  UNL1        0.0162
     19 C          16.9545   42.6269    8.0734 C.2     1  UNL1        0.2563
     20 O          17.0020   41.4226    8.4375 O.2     1  UNL1       -0.2720
     21 N          15.7525   43.1851    7.5208 N.am    1  UNL1       -0.2819
     22 H          15.7924   44.1279    7.2403 H       1  UNL1        0.1549
     23 C          18.1811   43.4688    8.2157 C.3     1  UNL1        0.2273
     24 C          18.0265   43.7318    6.0308 C.3     1  UNL1        0.1748
     25 O          18.2439   44.4380    7.2130 O.3     1  UNL1       -0.3417
     26 O           8.5297   38.8363    4.6933 O.3     1  UNL1       -0.4457
     27 C           8.9072   38.9342    3.3237 C.3     1  UNL1        0.2086
     28 C          10.0030   37.9327    2.9723 C.3     1  UNL1        0.0439
     29 C           9.7506   36.5957    3.6423 C.3     1  UNL1        0.0038
     30 C          11.3747   38.4579    3.3511 C.3     1  UNL1        0.0038
@<TRIPOS>BOND
     1    24    25    1
     2    23    25    1
     3    23    19    1
     4    19    21   am
     5    14    15   ar
     6    16    17   ar
     7    16     3    1
     8    18    13   ar
     9     1    26    1
    10     1     5   ar
    11    27    26    1
    12    27    28    1
    13    28    29    1
    14    28    30    1
    15     2     6    1
    16     2     3   ar
    17     7     9   ar
    18     8     7    1
    19    10    11   ar
    20    12     6   ar
    21    21    13    1
    22     3     4   ar
    23    19    20    2
    24    13    14   ar
    25    15    16   ar
    26    17    18   ar
    27     1     4   ar
    28     2     5   ar
    29     6     7   ar
    30     9    10   ar
    31    11    12   ar
    32    21    22    1
