@<TRIPOS>MOLECULE
MolPort-000-055-736 1379119 CHEMBL1402429 PubChem-1468316 ZINC000001379119 ZINC01379119
 26 28 0 0 0
SMALL
GASTEIGER

@<TRIPOS>ATOM
      1 C           5.9975   39.7660    5.8911 C.3     1  UNL1        0.0528
      2 C           7.4053   39.8353    6.3742 C.ar    1  UNL1        0.0717
      3 C           7.8197   40.5929    7.4772 C.ar    1  UNL1        0.0991
      4 C           9.5877   39.3184    6.3503 C.ar    1  UNL1        0.1655
      5 S           9.4837   40.3696    7.6529 S.2     1  UNL1       -0.0471
      6 N           8.3890   39.1262    5.7588 N.ar    1  UNL1       -0.2281
      7 C           6.9812   41.5013    8.2944 C.2     1  UNL1        0.2563
      8 C           6.8173   43.2061   10.1188 C.3     1  UNL1        0.0937
      9 C           6.2587   42.9575   11.5218 C.3     1  UNL1        0.0216
     10 C           7.1996   42.1372   12.4191 C.3     1  UNL1        0.0035
     11 C           8.5529   41.8496   11.7710 C.3     1  UNL1        0.0216
     12 C           8.3484   41.2067   10.4011 C.3     1  UNL1        0.0937
     13 N           7.4098   41.9808    9.5808 N.am    1  UNL1       -0.2756
     14 O           5.8668   41.8767    7.8392 O.2     1  UNL1       -0.2693
     15 C          11.7386   39.2903    5.0030 C.2     1  UNL1        0.2510
     16 N          10.8064   38.7061    5.9179 N.am    1  UNL1       -0.2606
     17 O          11.5263   40.4296    4.5046 O.2     1  UNL1       -0.2698
     18 H          11.0198   37.8147    6.2773 H       1  UNL1        0.1571
     19 C          12.9489   38.5410    4.6530 C.2     1  UNL1        0.0581
     20 C          12.9012   37.2708    4.2573 C.2     1  UNL1        0.0047
     21 C          14.1031   36.5039    3.9026 C.ar    1  UNL1        0.0001
     22 C          14.8883   36.9396    2.8295 C.ar    1  UNL1        0.0000
     23 C          16.0389   36.2338    2.4648 C.ar    1  UNL1        0.0000
     24 C          16.4100   35.0871    3.1728 C.ar    1  UNL1        0.0000
     25 C          15.6307   34.6456    4.2460 C.ar    1  UNL1        0.0000
     26 C          14.4803   35.3512    4.6108 C.ar    1  UNL1        0.0000
@<TRIPOS>BOND
     1     1     2    1
     2     2     6   ar
     3     3     5   ar
     4     3     7    1
     5     4     5   ar
     6     4    16    1
     7    15    19    1
     8    20    21    1
     9    22    23   ar
    10    24    25   ar
    11    26    21   ar
    12     7    13   am
    13     8    13    1
    14     8     9    1
    15     9    10    1
    16    10    11    1
    17    11    12    1
    18    12    13    1
    19    16    15   am
    20     2     3   ar
    21     4     6   ar
    22    15    17    2
    23    19    20    2
    24    21    22   ar
    25    23    24   ar
    26    25    26   ar
    27     7    14    2
    28    16    18    1
@<TRIPOS>MOLECULE
MolPort-000-055-736 1379119 CHEMBL1402429 PubChem-1468316 ZINC000001379119 ZINC01379119
 26 28 0 0 0
SMALL
GASTEIGER

@<TRIPOS>ATOM
      1 C           4.0462   39.7453   10.0854 C.3     1  UNL1        0.0528
      2 C           4.9365   40.9347    9.9726 C.ar    1  UNL1        0.0717
      3 C           4.5184   42.2520   10.2009 C.ar    1  UNL1        0.0991
      4 C           6.8839   41.9855    9.6066 C.ar    1  UNL1        0.1655
      5 S           5.8519   43.2590    9.9611 S.2     1  UNL1       -0.0471
      6 N           6.2502   40.7939    9.6505 N.ar    1  UNL1       -0.2281
      7 C           3.1409   42.7046   10.5071 C.2     1  UNL1        0.2563
      8 C           1.4335   43.3768   12.2085 C.3     1  UNL1        0.0937
      9 C           0.2460   42.5248   12.6625 C.3     1  UNL1        0.0216
     10 C           0.6456   41.3543   13.5754 C.3     1  UNL1        0.0035
     11 C           2.1274   41.3579   13.9475 C.3     1  UNL1        0.0216
     12 C           2.9818   41.4278   12.6839 C.3     1  UNL1        0.0937
     13 N           2.5510   42.5217   11.8058 N.am    1  UNL1       -0.2756
     14 O           2.4743   43.2818    9.6056 O.2     1  UNL1       -0.2693
     15 C           9.3564   41.6842   10.0953 C.2     1  UNL1        0.2510
     16 N           8.2694   42.1495    9.2894 N.am    1  UNL1       -0.2606
     17 O           9.1419   41.0764   11.1798 O.2     1  UNL1       -0.2698
     18 H           8.4919   42.6183    8.4528 H       1  UNL1        0.1571
     19 C          10.7283   41.9259    9.6388 C.2     1  UNL1        0.0581
     20 C          11.1449   41.5518    8.4310 C.2     1  UNL1        0.0047
     21 C          12.5156   41.7853    7.9563 C.ar    1  UNL1        0.0001
     22 C          13.5842   41.2952    8.7151 C.ar    1  UNL1        0.0000
     23 C          14.9015   41.4993    8.2928 C.ar    1  UNL1        0.0000
     24 C          15.1563   42.1957    7.1079 C.ar    1  UNL1        0.0000
     25 C          14.0940   42.6883    6.3446 C.ar    1  UNL1        0.0000
     26 C          12.7769   42.4843    6.7665 C.ar    1  UNL1        0.0000
@<TRIPOS>BOND
     1     1     2    1
     2     2     6   ar
     3     3     5   ar
     4     3     7    1
     5     4     5   ar
     6     4    16    1
     7    15    19    1
     8    20    21    1
     9    22    23   ar
    10    24    25   ar
    11    26    21   ar
    12     7    13   am
    13     8    13    1
    14     8     9    1
    15     9    10    1
    16    10    11    1
    17    11    12    1
    18    12    13    1
    19    16    15   am
    20     2     3   ar
    21     4     6   ar
    22    15    17    2
    23    19    20    2
    24    21    22   ar
    25    23    24   ar
    26    25    26   ar
    27     7    14    2
    28    16    18    1
@<TRIPOS>MOLECULE
MolPort-000-055-736 1379119 CHEMBL1402429 PubChem-1468316 ZINC000001379119 ZINC01379119
 26 28 0 0 0
SMALL
GASTEIGER

@<TRIPOS>ATOM
      1 C          13.4288   42.5411    6.0041 C.3     1  UNL1        0.0528
      2 C          12.7611   41.9250    7.1849 C.ar    1  UNL1        0.0717
      3 C          13.4469   41.3483    8.2616 C.ar    1  UNL1        0.0991
      4 C          10.9995   41.3145    8.4319 C.ar    1  UNL1        0.1655
      5 S          12.2935   40.7842    9.3577 S.2     1  UNL1       -0.0471
      6 N          11.4053   41.9089    7.2892 N.ar    1  UNL1       -0.2281
      7 C          14.9131   41.1744    8.3881 C.2     1  UNL1        0.2563
      8 C          17.1653   42.1875    8.7920 C.3     1  UNL1        0.0937
      9 C          18.2341   42.4352    7.7251 C.3     1  UNL1        0.0216
     10 C          17.9083   43.6142    6.7939 C.3     1  UNL1        0.0035
     11 C          16.6501   44.3775    7.2045 C.3     1  UNL1        0.0216
     12 C          15.4778   43.4099    7.3499 C.3     1  UNL1        0.0937
     13 N          15.8279   42.2686    8.2032 N.am    1  UNL1       -0.2756
     14 O          15.3689   40.0362    8.6830 O.2     1  UNL1       -0.2693
     15 C           8.5094   41.3360    7.9405 C.2     1  UNL1        0.2510
     16 N           9.6298   41.1477    8.8104 N.am    1  UNL1       -0.2606
     17 O           8.6763   41.6755    6.7370 O.2     1  UNL1       -0.2698
     18 H           9.4441   40.8833    9.7403 H       1  UNL1        0.1571
     19 C           7.1594   41.1272    8.4723 C.2     1  UNL1        0.0581
     20 C           6.5944   41.9868    9.3173 C.2     1  UNL1        0.0047
     21 C           5.2430   41.7942    9.8606 C.ar    1  UNL1        0.0001
     22 C           4.1756   41.6323    8.9705 C.ar    1  UNL1        0.0000
     23 C           2.8764   41.4467    9.4531 C.ar    1  UNL1        0.0000
     24 C           2.6386   41.4223   10.8303 C.ar    1  UNL1        0.0000
     25 C           3.6998   41.5834   11.7257 C.ar    1  UNL1        0.0000
     26 C           4.9988   41.7688   11.2434 C.ar    1  UNL1        0.0000
@<TRIPOS>BOND
     1     1     2    1
     2     2     6   ar
     3     3     5   ar
     4     3     7    1
     5     4     5   ar
     6     4    16    1
     7    15    19    1
     8    20    21    1
     9    22    23   ar
    10    24    25   ar
    11    26    21   ar
    12     7    13   am
    13     8    13    1
    14     8     9    1
    15     9    10    1
    16    10    11    1
    17    11    12    1
    18    12    13    1
    19    16    15   am
    20     2     3   ar
    21     4     6   ar
    22    15    17    2
    23    19    20    2
    24    21    22   ar
    25    23    24   ar
    26    25    26   ar
    27     7    14    2
    28    16    18    1
@<TRIPOS>MOLECULE
MolPort-000-055-736 1379119 CHEMBL1402429 PubChem-1468316 ZINC000001379119 ZINC01379119
 26 28 0 0 0
SMALL
GASTEIGER

@<TRIPOS>ATOM
      1 C          14.9444   42.5181    6.9012 C.3     1  UNL1        0.0528
      2 C          13.8255   42.0962    7.7900 C.ar    1  UNL1        0.0717
      3 C          13.9528   41.1524    8.8172 C.ar    1  UNL1        0.0991
      4 C          11.7183   42.1320    8.5576 C.ar    1  UNL1        0.1655
      5 S          12.4419   40.9927    9.5531 S.2     1  UNL1       -0.0471
      6 N          12.5862   42.6400    7.6564 N.ar    1  UNL1       -0.2281
      7 C          15.1612   40.3621    9.1505 C.2     1  UNL1        0.2563
      8 C          16.1954   38.1447    9.6752 C.3     1  UNL1        0.0937
      9 C          16.6633   37.6856   11.0581 C.3     1  UNL1        0.0216
     10 C          15.5084   37.3341   12.0099 C.3     1  UNL1        0.0035
     11 C          14.1363   37.3901   11.3402 C.3     1  UNL1        0.0216
     12 C          13.9412   38.7455   10.6646 C.3     1  UNL1        0.0937
     13 N          15.0777   39.0813    9.7993 N.am    1  UNL1       -0.2756
     14 O          16.2942   40.8206    8.8402 O.2     1  UNL1       -0.2693
     15 C           9.7937   43.3635    9.6631 C.2     1  UNL1        0.2510
     16 N          10.3421   42.5116    8.6527 N.am    1  UNL1       -0.2606
     17 O          10.5281   43.8481   10.5672 O.2     1  UNL1       -0.2698
     18 H           9.7253   42.1597    7.9708 H       1  UNL1        0.1571
     19 C           8.3596   43.6652    9.6308 C.2     1  UNL1        0.0581
     20 C           7.5851   43.2971    8.6124 C.2     1  UNL1        0.0047
     21 C           6.1464   43.5907    8.5624 C.ar    1  UNL1        0.0001
     22 C           5.7002   44.6384    7.7492 C.ar    1  UNL1        0.0000
     23 C           4.3379   44.9451    7.6778 C.ar    1  UNL1        0.0000
     24 C           3.4142   44.2043    8.4206 C.ar    1  UNL1        0.0000
     25 C           3.8523   43.1562    9.2352 C.ar    1  UNL1        0.0000
     26 C           5.2143   42.8494    9.3066 C.ar    1  UNL1        0.0000
@<TRIPOS>BOND
     1     1     2    1
     2     2     6   ar
     3     3     5   ar
     4     3     7    1
     5     4     5   ar
     6     4    16    1
     7    15    19    1
     8    20    21    1
     9    22    23   ar
    10    24    25   ar
    11    26    21   ar
    12     7    13   am
    13     8    13    1
    14     8     9    1
    15     9    10    1
    16    10    11    1
    17    11    12    1
    18    12    13    1
    19    16    15   am
    20     2     3   ar
    21     4     6   ar
    22    15    17    2
    23    19    20    2
    24    21    22   ar
    25    23    24   ar
    26    25    26   ar
    27     7    14    2
    28    16    18    1
@<TRIPOS>MOLECULE
MolPort-000-055-736 1379119 CHEMBL1402429 PubChem-1468316 ZINC000001379119 ZINC01379119
 26 28 0 0 0
SMALL
GASTEIGER

@<TRIPOS>ATOM
      1 C          15.3744   41.0338    8.7790 C.3     1  UNL1        0.0528
      2 C          14.2176   40.4113    9.4821 C.ar    1  UNL1        0.0717
      3 C          14.2979   39.2303   10.2310 C.ar    1  UNL1        0.0991
      4 C          12.0804   40.2771   10.1492 C.ar    1  UNL1        0.1655
      5 S          12.7570   38.9067   10.8398 S.2     1  UNL1       -0.0471
      6 N          12.9873   40.9897    9.4468 N.ar    1  UNL1       -0.2281
      7 C          15.4881   38.3624   10.3931 C.2     1  UNL1        0.2563
      8 C          17.2657   36.9443    9.3487 C.3     1  UNL1        0.0937
      9 C          17.3140   35.4149    9.3748 C.3     1  UNL1        0.0216
     10 C          16.2861   34.7537    8.4423 C.3     1  UNL1        0.0035
     11 C          15.5165   35.7568    7.5845 C.3     1  UNL1        0.0216
     12 C          14.8906   36.8296    8.4727 C.3     1  UNL1        0.0937
     13 N          15.8794   37.4120    9.3871 N.am    1  UNL1       -0.2756
     14 O          16.1862   38.4738   11.4373 O.2     1  UNL1       -0.2693
     15 C           9.8901   41.1844    9.2425 C.2     1  UNL1        0.2510
     16 N          10.7030   40.6392   10.2863 N.am    1  UNL1       -0.2606
     17 O          10.3662   41.3852    8.0916 O.2     1  UNL1       -0.2698
     18 H          10.2824   40.5029   11.1659 H       1  UNL1        0.1571
     19 C           8.4900   41.5071    9.5331 C.2     1  UNL1        0.0581
     20 C           7.5905   41.6750    8.5661 C.2     1  UNL1        0.0047
     21 C           6.1835   41.9988    8.8381 C.ar    1  UNL1        0.0001
     22 C           5.7373   43.3060    8.6141 C.ar    1  UNL1        0.0000
     23 C           4.4047   43.6489    8.8622 C.ar    1  UNL1        0.0000
     24 C           3.5108   42.6845    9.3362 C.ar    1  UNL1        0.0000
     25 C           3.9491   41.3766    9.5624 C.ar    1  UNL1        0.0000
     26 C           5.2814   41.0335    9.3143 C.ar    1  UNL1        0.0000
@<TRIPOS>BOND
     1     1     2    1
     2     2     6   ar
     3     3     5   ar
     4     3     7    1
     5     4     5   ar
     6     4    16    1
     7    15    19    1
     8    20    21    1
     9    22    23   ar
    10    24    25   ar
    11    26    21   ar
    12     7    13   am
    13     8    13    1
    14     8     9    1
    15     9    10    1
    16    10    11    1
    17    11    12    1
    18    12    13    1
    19    16    15   am
    20     2     3   ar
    21     4     6   ar
    22    15    17    2
    23    19    20    2
    24    21    22   ar
    25    23    24   ar
    26    25    26   ar
    27     7    14    2
    28    16    18    1
@<TRIPOS>MOLECULE
MolPort-000-055-736 1379119 CHEMBL1402429 PubChem-1468316 ZINC000001379119 ZINC01379119
 26 28 0 0 0
SMALL
GASTEIGER

@<TRIPOS>ATOM
      1 C          14.6105   39.3342   11.1536 C.3     1  UNL1        0.0528
      2 C          13.7237   40.0024   10.1601 C.ar    1  UNL1        0.0717
      3 C          14.1894   40.7508    9.0714 C.ar    1  UNL1        0.0991
      4 C          11.7498   40.5667    9.2568 C.ar    1  UNL1        0.1655
      5 S          12.8413   41.3120    8.2244 S.2     1  UNL1       -0.0471
      6 N          12.3709   39.8988   10.2527 N.ar    1  UNL1       -0.2281
      7 C          15.6007   41.0770    8.7584 C.2     1  UNL1        0.2563
      8 C          17.3512   42.8061    8.3029 C.3     1  UNL1        0.0937
      9 C          17.9599   43.1173    6.9337 C.3     1  UNL1        0.0216
     10 C          17.0085   43.8835    6.0004 C.3     1  UNL1        0.0035
     11 C          15.6996   44.2907    6.6751 C.3     1  UNL1        0.0216
     12 C          15.0363   43.0685    7.3059 C.3     1  UNL1        0.0937
     13 N          15.9767   42.3264    8.1534 N.am    1  UNL1       -0.2756
     14 O          16.4984   40.2398    9.0471 O.2     1  UNL1       -0.2693
     15 C           9.5289   41.7879    9.3952 C.2     1  UNL1        0.2510
     16 N          10.3296   40.6394    9.0995 N.am    1  UNL1       -0.2606
     17 O          10.0564   42.8476    9.8315 O.2     1  UNL1       -0.2698
     18 H           9.8679   39.8380    8.7620 H       1  UNL1        0.1571
     19 C           8.0805   41.7130    9.1823 C.2     1  UNL1        0.0581
     20 C           7.2106   42.0581   10.1291 C.2     1  UNL1        0.0047
     21 C           5.7560   41.9896    9.9340 C.ar    1  UNL1        0.0001
     22 C           5.0581   40.8913   10.4483 C.ar    1  UNL1        0.0000
     23 C           3.6733   40.7940   10.2810 C.ar    1  UNL1        0.0000
     24 C           2.9791   41.7964    9.5975 C.ar    1  UNL1        0.0000
     25 C           3.6694   42.8966    9.0809 C.ar    1  UNL1        0.0000
     26 C           5.0539   42.9941    9.2481 C.ar    1  UNL1        0.0000
@<TRIPOS>BOND
     1     1     2    1
     2     2     6   ar
     3     3     5   ar
     4     3     7    1
     5     4     5   ar
     6     4    16    1
     7    15    19    1
     8    20    21    1
     9    22    23   ar
    10    24    25   ar
    11    26    21   ar
    12     7    13   am
    13     8    13    1
    14     8     9    1
    15     9    10    1
    16    10    11    1
    17    11    12    1
    18    12    13    1
    19    16    15   am
    20     2     3   ar
    21     4     6   ar
    22    15    17    2
    23    19    20    2
    24    21    22   ar
    25    23    24   ar
    26    25    26   ar
    27     7    14    2
    28    16    18    1
@<TRIPOS>MOLECULE
MolPort-000-055-736 1379119 CHEMBL1402429 PubChem-1468316 ZINC000001379119 ZINC01379119
 26 28 0 0 0
SMALL
GASTEIGER

@<TRIPOS>ATOM
      1 C           9.7943   41.1637   12.1142 C.3     1  UNL1        0.0528
      2 C          10.5823   40.7924   10.9054 C.ar    1  UNL1        0.0717
      3 C          10.7558   41.6284    9.7949 C.ar    1  UNL1        0.0991
      4 C          11.8747   39.4490    9.6581 C.ar    1  UNL1        0.1655
      5 S          11.7128   40.8001    8.6778 S.2     1  UNL1       -0.0471
      6 N          11.2108   39.5891   10.8257 N.ar    1  UNL1       -0.2281
      7 C          10.1430   42.9610    9.5837 C.2     1  UNL1        0.2563
      8 C           8.0954   44.3993    9.5576 C.3     1  UNL1        0.0937
      9 C           7.3876   44.9174    8.3036 C.3     1  UNL1        0.0216
     10 C           6.5944   43.8334    7.5560 C.3     1  UNL1        0.0035
     11 C           6.5683   42.4923    8.2875 C.3     1  UNL1        0.0216
     12 C           7.9926   42.0494    8.6146 C.3     1  UNL1        0.0937
     13 N           8.7450   43.1166    9.2840 N.am    1  UNL1       -0.2756
     14 O          10.8670   43.9882    9.6868 O.2     1  UNL1       -0.2693
     15 C          13.7705   37.7947    9.9921 C.2     1  UNL1        0.2510
     16 N          12.6234   38.2861    9.2921 N.am    1  UNL1       -0.2606
     17 O          14.2043   38.3882   11.0174 O.2     1  UNL1       -0.2698
     18 H          12.3267   37.7857    8.4978 H       1  UNL1        0.1571
     19 C          14.4360   36.5860    9.4971 C.2     1  UNL1        0.0581
     20 C          14.9598   36.5207    8.2750 C.2     1  UNL1        0.0047
     21 C          15.6302   35.3183    7.7617 C.ar    1  UNL1        0.0001
     22 C          15.5528   34.1347    8.5040 C.ar    1  UNL1        0.0000
     23 C          16.1789   32.9718    8.0451 C.ar    1  UNL1        0.0000
     24 C          16.8864   32.9873    6.8396 C.ar    1  UNL1        0.0000
     25 C          16.9681   34.1658    6.0925 C.ar    1  UNL1        0.0000
     26 C          16.3422   35.3286    6.5511 C.ar    1  UNL1        0.0000
@<TRIPOS>BOND
     1     1     2    1
     2     2     6   ar
     3     3     5   ar
     4     3     7    1
     5     4     5   ar
     6     4    16    1
     7    15    19    1
     8    20    21    1
     9    22    23   ar
    10    24    25   ar
    11    26    21   ar
    12     7    13   am
    13     8    13    1
    14     8     9    1
    15     9    10    1
    16    10    11    1
    17    11    12    1
    18    12    13    1
    19    16    15   am
    20     2     3   ar
    21     4     6   ar
    22    15    17    2
    23    19    20    2
    24    21    22   ar
    25    23    24   ar
    26    25    26   ar
    27     7    14    2
    28    16    18    1
@<TRIPOS>MOLECULE
MolPort-000-055-736 1379119 CHEMBL1402429 PubChem-1468316 ZINC000001379119 ZINC01379119
 26 28 0 0 0
SMALL
GASTEIGER

@<TRIPOS>ATOM
      1 C          12.7267   35.7421   10.4807 C.3     1  UNL1        0.0528
      2 C          12.5057   37.2082   10.3328 C.ar    1  UNL1        0.0717
      3 C          13.5119   38.1717   10.4784 C.ar    1  UNL1        0.0991
      4 C          11.2878   39.0466    9.9237 C.ar    1  UNL1        0.1655
      5 S          12.8091   39.6854   10.2241 S.2     1  UNL1       -0.0471
      6 N          11.2772   37.6996   10.0187 N.ar    1  UNL1       -0.2281
      7 C          14.9198   37.9310   10.8735 C.2     1  UNL1        0.2563
      8 C          17.3211   37.6912   10.2120 C.3     1  UNL1        0.0937
      9 C          18.1002   36.3754   10.1501 C.3     1  UNL1        0.0216
     10 C          17.7170   35.4926    8.9513 C.3     1  UNL1        0.0035
     11 C          16.7323   36.1658    7.9966 C.3     1  UNL1        0.0216
     12 C          15.5113   36.6588    8.7697 C.3     1  UNL1        0.0937
     13 N          15.9028   37.4581    9.9363 N.am    1  UNL1       -0.2756
     14 O          15.2675   38.1640   12.0630 O.2     1  UNL1       -0.2693
     15 C           9.9004   40.4777    8.3521 C.2     1  UNL1        0.2510
     16 N          10.1395   39.8408    9.6109 N.am    1  UNL1       -0.2606
     17 O          10.7279   40.3689    7.4061 O.2     1  UNL1       -0.2698
     18 H           9.4621   39.9580   10.3157 H       1  UNL1        0.1571
     19 C           8.6739   41.2616    8.1787 C.2     1  UNL1        0.0581
     20 C           7.8468   41.5089    9.1921 C.2     1  UNL1        0.0047
     21 C           6.6134   42.2921    9.0375 C.ar    1  UNL1        0.0001
     22 C           6.5333   43.2246    7.9974 C.ar    1  UNL1        0.0000
     23 C           5.3744   43.9869    7.8210 C.ar    1  UNL1        0.0000
     24 C           4.2887   43.8197    8.6854 C.ar    1  UNL1        0.0000
     25 C           4.3613   42.8900    9.7267 C.ar    1  UNL1        0.0000
     26 C           5.5198   42.1277    9.9032 C.ar    1  UNL1        0.0000
@<TRIPOS>BOND
     1     1     2    1
     2     2     6   ar
     3     3     5   ar
     4     3     7    1
     5     4     5   ar
     6     4    16    1
     7    15    19    1
     8    20    21    1
     9    22    23   ar
    10    24    25   ar
    11    26    21   ar
    12     7    13   am
    13     8    13    1
    14     8     9    1
    15     9    10    1
    16    10    11    1
    17    11    12    1
    18    12    13    1
    19    16    15   am
    20     2     3   ar
    21     4     6   ar
    22    15    17    2
    23    19    20    2
    24    21    22   ar
    25    23    24   ar
    26    25    26   ar
    27     7    14    2
    28    16    18    1
@<TRIPOS>MOLECULE
MolPort-000-055-736 1379119 CHEMBL1402429 PubChem-1468316 ZINC000001379119 ZINC01379119
 26 28 0 0 0
SMALL
GASTEIGER

@<TRIPOS>ATOM
      1 C          10.8241   40.7791   11.8541 C.3     1  UNL1        0.0528
      2 C          11.8180   40.3759   10.8199 C.ar    1  UNL1        0.0717
      3 C          11.8727   40.9201    9.5303 C.ar    1  UNL1        0.0991
      4 C          13.5724   39.2228   10.0305 C.ar    1  UNL1        0.1655
      5 S          13.1467   40.1710    8.7144 S.2     1  UNL1       -0.0471
      6 N          12.7671   39.4410   11.0924 N.ar    1  UNL1       -0.2281
      7 C          10.9349   41.9061    8.9433 C.2     1  UNL1        0.2563
      8 C           8.5945   42.5258    8.3109 C.3     1  UNL1        0.0937
      9 C           8.0354   42.5551    6.8866 C.3     1  UNL1        0.0216
     10 C           7.7885   41.1572    6.2967 C.3     1  UNL1        0.0035
     11 C           8.0286   40.0286    7.2983 C.3     1  UNL1        0.0216
     12 C           9.4204   40.1636    7.9117 C.3     1  UNL1        0.0937
     13 N           9.6508   41.5192    8.4241 N.am    1  UNL1       -0.2756
     14 O          11.2680   43.1220    8.9144 O.2     1  UNL1       -0.2693
     15 C          14.7974   37.2039    9.1001 C.2     1  UNL1        0.2510
     16 N          14.6573   38.2901   10.0209 N.am    1  UNL1       -0.2606
     17 O          13.9314   37.0000    8.2057 O.2     1  UNL1       -0.2698
     18 H          15.3612   38.4044   10.6997 H       1  UNL1        0.1571
     19 C          15.9678   36.3285    9.2131 C.2     1  UNL1        0.0581
     20 C          16.0771   35.2040    8.5089 C.2     1  UNL1        0.0047
     21 C          17.2421   34.3144    8.6091 C.ar    1  UNL1        0.0001
     22 C          18.5211   34.8807    8.6468 C.ar    1  UNL1        0.0000
     23 C          19.6518   34.0637    8.7420 C.ar    1  UNL1        0.0000
     24 C          19.5082   32.6744    8.8000 C.ar    1  UNL1        0.0000
     25 C          18.2338   32.1015    8.7628 C.ar    1  UNL1        0.0000
     26 C          17.1032   32.9181    8.6678 C.ar    1  UNL1        0.0000
@<TRIPOS>BOND
     1     1     2    1
     2     2     6   ar
     3     3     5   ar
     4     3     7    1
     5     4     5   ar
     6     4    16    1
     7    15    19    1
     8    20    21    1
     9    22    23   ar
    10    24    25   ar
    11    26    21   ar
    12     7    13   am
    13     8    13    1
    14     8     9    1
    15     9    10    1
    16    10    11    1
    17    11    12    1
    18    12    13    1
    19    16    15   am
    20     2     3   ar
    21     4     6   ar
    22    15    17    2
    23    19    20    2
    24    21    22   ar
    25    23    24   ar
    26    25    26   ar
    27     7    14    2
    28    16    18    1
@<TRIPOS>MOLECULE
MolPort-000-055-736 1379119 CHEMBL1402429 PubChem-1468316 ZINC000001379119 ZINC01379119
 26 28 0 0 0
SMALL
GASTEIGER

@<TRIPOS>ATOM
      1 C          13.5743   42.5126    6.4049 C.3     1  UNL1        0.0528
      2 C          12.7215   41.9827    7.5057 C.ar    1  UNL1        0.0717
      3 C          13.2192   41.3108    8.6295 C.ar    1  UNL1        0.0991
      4 C          10.7841   41.6048    8.5707 C.ar    1  UNL1        0.1655
      5 S          11.9022   40.8984    9.6018 S.2     1  UNL1       -0.0471
      6 N          11.3719   42.1481    7.4831 N.ar    1  UNL1       -0.2281
      7 C          14.6306   40.9405    8.8883 C.2     1  UNL1        0.2563
      8 C          16.3008   39.2104    9.5805 C.3     1  UNL1        0.0937
      9 C          17.0251   39.1613   10.9278 C.3     1  UNL1        0.0216
     10 C          16.1262   38.7098   12.0902 C.3     1  UNL1        0.0035
     11 C          14.7309   38.2783   11.6416 C.3     1  UNL1        0.0216
     12 C          14.0884   39.3817   10.8042 C.3     1  UNL1        0.0937
     13 N          14.9836   39.8301    9.7314 N.am    1  UNL1       -0.2756
     14 O          15.5471   41.6099    8.3388 O.2     1  UNL1       -0.2693
     15 C           8.3935   40.9615    8.0103 C.2     1  UNL1        0.2510
     16 N           9.3747   41.6207    8.8166 N.am    1  UNL1       -0.2606
     17 O           8.7338   40.3003    6.9911 O.2     1  UNL1       -0.2698
     18 H           9.0556   42.1236    9.6005 H       1  UNL1        0.1571
     19 C           6.9813   41.0671    8.3888 C.2     1  UNL1        0.0581
     20 C           6.6055   41.4184    9.6167 C.2     1  UNL1        0.0047
     21 C           5.1955   41.5293   10.0144 C.ar    1  UNL1        0.0001
     22 C           4.2043   41.2308    9.0729 C.ar    1  UNL1        0.0000
     23 C           2.8525   41.3257    9.4174 C.ar    1  UNL1        0.0000
     24 C           2.4853   41.7203   10.7072 C.ar    1  UNL1        0.0000
     25 C           3.4698   42.0201   11.6531 C.ar    1  UNL1        0.0000
     26 C           4.8214   41.9251   11.3089 C.ar    1  UNL1        0.0000
@<TRIPOS>BOND
     1     1     2    1
     2     2     6   ar
     3     3     5   ar
     4     3     7    1
     5     4     5   ar
     6     4    16    1
     7    15    19    1
     8    20    21    1
     9    22    23   ar
    10    24    25   ar
    11    26    21   ar
    12     7    13   am
    13     8    13    1
    14     8     9    1
    15     9    10    1
    16    10    11    1
    17    11    12    1
    18    12    13    1
    19    16    15   am
    20     2     3   ar
    21     4     6   ar
    22    15    17    2
    23    19    20    2
    24    21    22   ar
    25    23    24   ar
    26    25    26   ar
    27     7    14    2
    28    16    18    1
