@<TRIPOS>MOLECULE
MolPort-020-278-773 MCULE-9791678562 PubChem-110255643
 26 28 0 0 0
SMALL
GASTEIGER

@<TRIPOS>ATOM
      1 C          13.4195   39.5687   11.2901 C.3     1  UNL1        0.0737
      2 C          12.8789   40.2292   10.0737 C.ar    1  UNL1        0.1406
      3 C          11.0225   40.9124    8.7780 C.ar    1  UNL1        0.0644
      4 C          11.8812   41.4525    7.8210 C.ar    1  UNL1        0.0492
      5 C          13.2572   41.3603    8.0282 C.ar    1  UNL1        0.1368
      6 N          11.5364   40.3114    9.8857 N.ar    1  UNL1       -0.2348
      7 N          13.7279   40.7506    9.1503 N.ar    1  UNL1       -0.2159
      8 C           9.5462   41.0000    8.5751 C.3     1  UNL1        0.0603
      9 C           9.1931   42.1614    7.6405 C.3     1  UNL1        0.0094
     10 C           7.6792   42.3811    7.4848 C.3     1  UNL1        0.0219
     11 C           6.8404   41.4589    8.3704 C.3     1  UNL1        0.0935
     12 C           8.8224   41.1423    9.9159 C.3     1  UNL1        0.0993
     13 C           6.5667   41.7094   10.8595 C.2     1  UNL1        0.2559
     14 N           7.3962   41.4225    9.7233 N.am    1  UNL1       -0.2771
     15 O           7.0541   41.6901   12.0215 O.2     1  UNL1       -0.2721
     16 C           5.1109   41.9979   10.6964 C.3     1  UNL1        0.2272
     17 C           4.0429   40.1965   11.3874 C.3     1  UNL1        0.1748
     18 O           4.4061   41.4825   11.7839 O.3     1  UNL1       -0.3417
     19 N          14.1478   41.9120    7.0511 N.pl3   1  UNL1       -0.2679
     20 H          13.8874   41.8140    6.1067 H       1  UNL1        0.1565
     21 C          15.3806   42.5924    7.3151 C.ar    1  UNL1        0.2218
     22 C          17.4510   42.7442    8.4542 C.ar    1  UNL1        0.1034
     23 C          17.7410   43.9355    7.7921 C.ar    1  UNL1        0.0414
     24 C          16.8076   44.4302    6.8832 C.ar    1  UNL1        0.1034
     25 N          16.2829   42.0967    8.2059 N.ar    1  UNL1       -0.2120
     26 N          15.6501   43.7539    6.6618 N.ar    1  UNL1       -0.2120
@<TRIPOS>BOND
     1     1     2    1
     2     2     7   ar
     3     3     6   ar
     4     4     5   ar
     5     5    19    1
     6    21    26   ar
     7    22    25   ar
     8    23    24   ar
     9     8     3    1
    10     8     9    1
    11     9    10    1
    12    10    11    1
    13    11    14    1
    14    12    14    1
    15    12     8    1
    16    16    13    1
    17    16    18    1
    18    17    18    1
    19    19    21    1
    20    14    13   am
    21     2     6   ar
    22     3     4   ar
    23     5     7   ar
    24    21    25   ar
    25    22    23   ar
    26    24    26   ar
    27    13    15    2
    28    19    20    1
@<TRIPOS>MOLECULE
MolPort-020-278-773 MCULE-9791678562 PubChem-110255643
 26 28 0 0 0
SMALL
GASTEIGER

@<TRIPOS>ATOM
      1 C           9.0858   41.0844   14.0452 C.3     1  UNL1        0.0737
      2 C           9.0986   41.3046   12.5758 C.ar    1  UNL1        0.1406
      3 C          10.2312   41.1763   10.5039 C.ar    1  UNL1        0.0644
      4 C           9.1193   41.7135    9.8557 C.ar    1  UNL1        0.0492
      5 C           7.9953   42.0398   10.6139 C.ar    1  UNL1        0.1368
      6 N          10.2005   40.9818   11.8505 N.ar    1  UNL1       -0.2348
      7 N           8.0079   41.8287   11.9584 N.ar    1  UNL1       -0.2159
      8 C          11.4446   40.8205    9.7108 C.3     1  UNL1        0.0603
      9 C          12.5944   40.4026   10.6329 C.3     1  UNL1        0.0094
     10 C          13.9116   40.1380    9.8848 C.3     1  UNL1        0.0219
     11 C          13.8281   40.4411    8.3882 C.3     1  UNL1        0.0935
     12 C          11.8651   41.9853    8.8117 C.3     1  UNL1        0.0993
     13 C          13.7845   42.7491    7.3859 C.2     1  UNL1        0.2559
     14 N          13.1593   41.7246    8.1740 N.am    1  UNL1       -0.2771
     15 O          13.2099   43.8577    7.2161 O.2     1  UNL1       -0.2721
     16 C          15.1016   42.5142    6.7232 C.3     1  UNL1        0.2272
     17 C          16.6809   44.0364    6.9502 C.3     1  UNL1        0.1748
     18 O          16.1321   42.9163    7.5725 O.3     1  UNL1       -0.3417
     19 N           6.8480   42.5922    9.9576 N.pl3   1  UNL1       -0.2679
     20 H           7.0147   43.2891    9.2824 H       1  UNL1        0.1565
     21 C           5.4816   42.2287   10.1884 C.ar    1  UNL1        0.2218
     22 C           3.2504   42.0008    9.4290 C.ar    1  UNL1        0.1034
     23 C           2.8629   41.5170   10.6770 C.ar    1  UNL1        0.0414
     24 C           3.8327   41.4024   11.6711 C.ar    1  UNL1        0.1034
     25 N           4.5452   42.3463    9.2071 N.ar    1  UNL1       -0.2120
     26 N           5.1179   41.7582   11.4110 N.ar    1  UNL1       -0.2120
@<TRIPOS>BOND
     1     1     2    1
     2     2     7   ar
     3     3     6   ar
     4     4     5   ar
     5     5    19    1
     6    21    26   ar
     7    22    25   ar
     8    23    24   ar
     9     8     3    1
    10     8     9    1
    11     9    10    1
    12    10    11    1
    13    11    14    1
    14    12    14    1
    15    12     8    1
    16    16    13    1
    17    16    18    1
    18    17    18    1
    19    19    21    1
    20    14    13   am
    21     2     6   ar
    22     3     4   ar
    23     5     7   ar
    24    21    25   ar
    25    22    23   ar
    26    24    26   ar
    27    13    15    2
    28    19    20    1
@<TRIPOS>MOLECULE
MolPort-020-278-773 MCULE-9791678562 PubChem-110255643
 26 28 0 0 0
SMALL
GASTEIGER

@<TRIPOS>ATOM
      1 C           9.1380   41.1283   14.4658 C.3     1  UNL1        0.0737
      2 C           9.0378   41.2300   12.9867 C.ar    1  UNL1        0.1406
      3 C          10.0370   41.0104   10.8548 C.ar    1  UNL1        0.0644
      4 C           8.8491   41.4191   10.2490 C.ar    1  UNL1        0.0492
      5 C           7.7574   41.7305   11.0589 C.ar    1  UNL1        0.1368
      6 N          10.1095   40.9232   12.2110 N.ar    1  UNL1       -0.2348
      7 N           7.8740   41.6295   12.4111 N.ar    1  UNL1       -0.2159
      8 C          11.2176   40.6729   10.0060 C.3     1  UNL1        0.0603
      9 C          12.4166   40.2773   10.8737 C.3     1  UNL1        0.0094
     10 C          13.7014   40.0328   10.0649 C.3     1  UNL1        0.0219
     11 C          13.5423   40.3299    8.5733 C.3     1  UNL1        0.0935
     12 C          11.5753   41.8418    9.0855 C.3     1  UNL1        0.0993
     13 C          13.4120   42.6337    7.5690 C.2     1  UNL1        0.2559
     14 N          12.8422   41.6012    8.3880 N.am    1  UNL1       -0.2771
     15 O          12.8112   43.7320    7.4241 O.2     1  UNL1       -0.2721
     16 C          14.7002   42.4192    6.8454 C.3     1  UNL1        0.2272
     17 C          15.4235   43.9029    5.3830 C.3     1  UNL1        0.1748
     18 O          15.3905   43.6271    6.7489 O.3     1  UNL1       -0.3417
     19 N           6.5326   42.1513   10.4464 N.pl3   1  UNL1       -0.2679
     20 H           5.7040   41.9910   10.9533 H       1  UNL1        0.1565
     21 C           6.3968   42.7829    9.1676 C.ar    1  UNL1        0.2218
     22 C           5.5948   44.5537    7.8155 C.ar    1  UNL1        0.1034
     23 C           6.1601   43.9632    6.6870 C.ar    1  UNL1        0.0414
     24 C           6.8476   42.7614    6.8446 C.ar    1  UNL1        0.1034
     25 N           5.7220   43.9572    9.0293 N.ar    1  UNL1       -0.2120
     26 N           6.9534   42.1953    8.0752 N.ar    1  UNL1       -0.2120
@<TRIPOS>BOND
     1     1     2    1
     2     2     7   ar
     3     3     6   ar
     4     4     5   ar
     5     5    19    1
     6    21    26   ar
     7    22    25   ar
     8    23    24   ar
     9     8     3    1
    10     8     9    1
    11     9    10    1
    12    10    11    1
    13    11    14    1
    14    12    14    1
    15    12     8    1
    16    16    13    1
    17    16    18    1
    18    17    18    1
    19    19    21    1
    20    14    13   am
    21     2     6   ar
    22     3     4   ar
    23     5     7   ar
    24    21    25   ar
    25    22    23   ar
    26    24    26   ar
    27    13    15    2
    28    19    20    1
@<TRIPOS>MOLECULE
MolPort-020-278-773 MCULE-9791678562 PubChem-110255643
 26 28 0 0 0
SMALL
GASTEIGER

@<TRIPOS>ATOM
      1 C           9.1474   41.1100   14.3919 C.3     1  UNL1        0.0737
      2 C           9.1361   41.3157   12.9203 C.ar    1  UNL1        0.1406
      3 C          10.2290   41.1524   10.8296 C.ar    1  UNL1        0.0644
      4 C           9.1123   41.6974   10.1963 C.ar    1  UNL1        0.0492
      5 C           8.0066   42.0456   10.9715 C.ar    1  UNL1        0.1368
      6 N          10.2205   40.9716   12.1785 N.ar    1  UNL1       -0.2348
      7 N           8.0410   41.8475   12.3176 N.ar    1  UNL1       -0.2159
      8 C          11.4232   40.7734   10.0183 C.3     1  UNL1        0.0603
      9 C          11.0430   39.7677    8.9269 C.3     1  UNL1        0.0094
     10 C          12.2504   39.2448    8.1311 C.3     1  UNL1        0.0219
     11 C          13.5903   39.7613    8.6568 C.3     1  UNL1        0.0935
     12 C          12.5302   40.2115   10.9130 C.3     1  UNL1        0.0993
     13 C          14.7093   38.9741   10.7689 C.2     1  UNL1        0.2559
     14 N          13.6290   39.6580   10.1156 N.am    1  UNL1       -0.2771
     15 O          14.7304   38.8762   12.0251 O.2     1  UNL1       -0.2721
     16 C          15.8431   38.4003    9.9850 C.3     1  UNL1        0.2272
     17 C          17.9692   38.8942   10.2989 C.3     1  UNL1        0.1748
     18 O          16.7930   39.3916    9.7403 O.3     1  UNL1       -0.3417
     19 N           6.8546   42.6061   10.3305 N.pl3   1  UNL1       -0.2679
     20 H           6.9654   43.4894    9.9102 H       1  UNL1        0.1565
     21 C           5.5568   42.0057   10.2418 C.ar    1  UNL1        0.2218
     22 C           3.4116   41.8653    9.2491 C.ar    1  UNL1        0.1034
     23 C           3.0708   40.8208   10.1062 C.ar    1  UNL1        0.0414
     24 C           4.0184   40.3911   11.0332 C.ar    1  UNL1        0.1034
     25 N           4.6414   42.4365    9.3308 N.ar    1  UNL1       -0.2120
     26 N           5.2380   40.9876   11.0845 N.ar    1  UNL1       -0.2120
@<TRIPOS>BOND
     1     1     2    1
     2     2     7   ar
     3     3     6   ar
     4     4     5   ar
     5     5    19    1
     6    21    26   ar
     7    22    25   ar
     8    23    24   ar
     9     8     3    1
    10     8     9    1
    11     9    10    1
    12    10    11    1
    13    11    14    1
    14    12    14    1
    15    12     8    1
    16    16    13    1
    17    16    18    1
    18    17    18    1
    19    19    21    1
    20    14    13   am
    21     2     6   ar
    22     3     4   ar
    23     5     7   ar
    24    21    25   ar
    25    22    23   ar
    26    24    26   ar
    27    13    15    2
    28    19    20    1
@<TRIPOS>MOLECULE
MolPort-020-278-773 MCULE-9791678562 PubChem-110255643
 26 28 0 0 0
SMALL
GASTEIGER

@<TRIPOS>ATOM
      1 C          13.1470   39.5642   11.2293 C.3     1  UNL1        0.0737
      2 C          12.6899   40.2290    9.9814 C.ar    1  UNL1        0.1406
      3 C          10.9248   40.9271    8.5711 C.ar    1  UNL1        0.0644
      4 C          11.8468   41.4604    7.6707 C.ar    1  UNL1        0.0492
      5 C          13.2061   41.3573    7.9647 C.ar    1  UNL1        0.1368
      6 N          11.3627   40.3220    9.7087 N.ar    1  UNL1       -0.2348
      7 N          13.5999   40.7438    9.1141 N.ar    1  UNL1       -0.2159
      8 C           9.4652   41.0265    8.2751 C.3     1  UNL1        0.0603
      9 C           9.1843   40.6992    6.8051 C.3     1  UNL1        0.0094
     10 C           7.7130   40.8996    6.4053 C.3     1  UNL1        0.0219
     11 C           6.8542   41.4772    7.5310 C.3     1  UNL1        0.0935
     12 C           8.9327   42.4156    8.6338 C.3     1  UNL1        0.0993
     13 C           6.9141   43.8709    8.3057 C.2     1  UNL1        0.2559
     14 N           7.5524   42.5917    8.1719 N.am    1  UNL1       -0.2771
     15 O           7.5255   44.8311    8.8462 O.2     1  UNL1       -0.2721
     16 C           5.5094   44.0819    7.8459 C.3     1  UNL1        0.2272
     17 C           4.0863   43.2100    9.2872 C.3     1  UNL1        0.1748
     18 O           4.7035   44.4094    8.9359 O.3     1  UNL1       -0.3417
     19 N          14.1611   41.9020    7.0464 N.pl3   1  UNL1       -0.2679
     20 H          13.9437   41.8373    6.0884 H       1  UNL1        0.1565
     21 C          15.4021   42.5317    7.3870 C.ar    1  UNL1        0.2218
     22 C          16.9195   44.3394    7.1958 C.ar    1  UNL1        0.1034
     23 C          17.8011   43.7068    8.0702 C.ar    1  UNL1        0.0414
     24 C          17.4390   42.4656    8.5899 C.ar    1  UNL1        0.1034
     25 N          15.7422   43.7448    6.8711 N.ar    1  UNL1       -0.2120
     26 N          16.2525   41.9028    8.2412 N.ar    1  UNL1       -0.2120
@<TRIPOS>BOND
     1     1     2    1
     2     2     7   ar
     3     3     6   ar
     4     4     5   ar
     5     5    19    1
     6    21    26   ar
     7    22    25   ar
     8    23    24   ar
     9     8     3    1
    10     8     9    1
    11     9    10    1
    12    10    11    1
    13    11    14    1
    14    12    14    1
    15    12     8    1
    16    16    13    1
    17    16    18    1
    18    17    18    1
    19    19    21    1
    20    14    13   am
    21     2     6   ar
    22     3     4   ar
    23     5     7   ar
    24    21    25   ar
    25    22    23   ar
    26    24    26   ar
    27    13    15    2
    28    19    20    1
@<TRIPOS>MOLECULE
MolPort-020-278-773 MCULE-9791678562 PubChem-110255643
 26 28 0 0 0
SMALL
GASTEIGER

@<TRIPOS>ATOM
      1 C           9.3537   38.4646    3.2786 C.3     1  UNL1        0.0737
      2 C           9.4986   39.4086    4.4170 C.ar    1  UNL1        0.1406
      3 C          10.8848   40.5578    5.9499 C.ar    1  UNL1        0.0644
      4 C           9.7639   41.1564    6.5245 C.ar    1  UNL1        0.0492
      5 C           8.5043   40.8515    6.0094 C.ar    1  UNL1        0.1368
      6 N          10.7320   39.6959    4.9079 N.ar    1  UNL1       -0.2348
      7 N           8.3974   39.9839    4.9662 N.ar    1  UNL1       -0.2159
      8 C          12.2422   40.8702    6.4866 C.3     1  UNL1        0.0603
      9 C          12.2332   40.8789    8.0185 C.3     1  UNL1        0.0094
     10 C          13.5740   41.3119    8.6345 C.3     1  UNL1        0.0219
     11 C          14.6084   41.7383    7.5920 C.3     1  UNL1        0.0935
     12 C          12.7472   42.2068    5.9387 C.3     1  UNL1        0.0993
     13 C          14.5567   43.9054    6.3137 C.2     1  UNL1        0.2559
     14 N          13.9879   42.6191    6.6023 N.am    1  UNL1       -0.2771
     15 O          14.0102   44.6657    5.4703 O.2     1  UNL1       -0.2721
     16 C          15.8194   44.3538    6.9724 C.3     1  UNL1        0.2272
     17 C          17.5818   43.9176    5.7208 C.3     1  UNL1        0.1748
     18 O          16.6664   44.9245    6.0227 O.3     1  UNL1       -0.3417
     19 N           7.3465   41.4612    6.5925 N.pl3   1  UNL1       -0.2679
     20 H           6.7304   41.9227    5.9788 H       1  UNL1        0.1565
     21 C           6.9984   41.4645    7.9823 C.ar    1  UNL1        0.2218
     22 C           7.5797   41.7910   10.2544 C.ar    1  UNL1        0.1034
     23 C           6.2845   41.4577   10.6456 C.ar    1  UNL1        0.0414
     24 C           5.3600   41.1280    9.6563 C.ar    1  UNL1        0.1034
     25 N           7.9127   41.7888    8.9374 N.ar    1  UNL1       -0.2120
     26 N           5.7309   41.1371    8.3493 N.ar    1  UNL1       -0.2120
@<TRIPOS>BOND
     1     1     2    1
     2     2     7   ar
     3     3     6   ar
     4     4     5   ar
     5     5    19    1
     6    21    26   ar
     7    22    25   ar
     8    23    24   ar
     9     8     3    1
    10     8     9    1
    11     9    10    1
    12    10    11    1
    13    11    14    1
    14    12    14    1
    15    12     8    1
    16    16    13    1
    17    16    18    1
    18    17    18    1
    19    19    21    1
    20    14    13   am
    21     2     6   ar
    22     3     4   ar
    23     5     7   ar
    24    21    25   ar
    25    22    23   ar
    26    24    26   ar
    27    13    15    2
    28    19    20    1
@<TRIPOS>MOLECULE
MolPort-020-278-773 MCULE-9791678562 PubChem-110255643
 26 28 0 0 0
SMALL
GASTEIGER

@<TRIPOS>ATOM
      1 C           8.0839   39.2594    5.4734 C.3     1  UNL1        0.0737
      2 C           8.7642   40.1763    6.4245 C.ar    1  UNL1        0.1406
      3 C          10.7603   41.0992    7.2937 C.ar    1  UNL1        0.0644
      4 C          10.0206   41.8746    8.1862 C.ar    1  UNL1        0.0492
      5 C           8.6299   41.7722    8.1685 C.ar    1  UNL1        0.1368
      6 N          10.1194   40.2653    6.4300 N.ar    1  UNL1       -0.2348
      7 N           8.0301   40.9253    7.2879 N.ar    1  UNL1       -0.2159
      8 C          12.2500   41.1934    7.2967 C.3     1  UNL1        0.0603
      9 C          12.7944   41.1648    8.7284 C.3     1  UNL1        0.0094
     10 C          14.3151   41.3786    8.8078 C.3     1  UNL1        0.0219
     11 C          14.9557   41.6731    7.4508 C.3     1  UNL1        0.0935
     12 C          12.7149   42.4538    6.5639 C.3     1  UNL1        0.0993
     13 C          14.7671   43.8555    6.2119 C.2     1  UNL1        0.2559
     14 N          14.1575   42.6608    6.7243 N.am    1  UNL1       -0.2771
     15 O          14.0720   44.7094    5.5989 O.2     1  UNL1       -0.2721
     16 C          16.2335   44.0952    6.3586 C.3     1  UNL1        0.2272
     17 C          17.7359   43.9044    7.9615 C.3     1  UNL1        0.1748
     18 O          16.5136   44.5037    7.6623 O.3     1  UNL1       -0.3417
     19 N           7.8609   42.5645    9.0813 N.pl3   1  UNL1       -0.2679
     20 H           8.2610   42.7401    9.9635 H       1  UNL1        0.1565
     21 C           6.5661   43.1259    8.8347 C.ar    1  UNL1        0.2218
     22 C           5.1700   44.6854    7.7275 C.ar    1  UNL1        0.1034
     23 C           4.0554   44.1757    8.3907 C.ar    1  UNL1        0.0414
     24 C           4.2427   43.1224    9.2837 C.ar    1  UNL1        0.1034
     25 N           6.3989   44.1550    7.9593 N.ar    1  UNL1       -0.2120
     26 N           5.4877   42.6187    9.4890 N.ar    1  UNL1       -0.2120
@<TRIPOS>BOND
     1     1     2    1
     2     2     7   ar
     3     3     6   ar
     4     4     5   ar
     5     5    19    1
     6    21    26   ar
     7    22    25   ar
     8    23    24   ar
     9     8     3    1
    10     8     9    1
    11     9    10    1
    12    10    11    1
    13    11    14    1
    14    12    14    1
    15    12     8    1
    16    16    13    1
    17    16    18    1
    18    17    18    1
    19    19    21    1
    20    14    13   am
    21     2     6   ar
    22     3     4   ar
    23     5     7   ar
    24    21    25   ar
    25    22    23   ar
    26    24    26   ar
    27    13    15    2
    28    19    20    1
@<TRIPOS>MOLECULE
MolPort-020-278-773 MCULE-9791678562 PubChem-110255643
 26 28 0 0 0
SMALL
GASTEIGER

@<TRIPOS>ATOM
      1 C          14.1071   38.8078   11.7954 C.3     1  UNL1        0.0737
      2 C          13.4670   39.7540   10.8451 C.ar    1  UNL1        0.1406
      3 C          11.6118   41.0855   10.2311 C.ar    1  UNL1        0.0644
      4 C          12.2849   41.5056    9.0841 C.ar    1  UNL1        0.0492
      5 C          13.5704   41.0200    8.8468 C.ar    1  UNL1        0.1368
      6 N          12.2144   40.2185   11.0897 N.ar    1  UNL1       -0.2348
      7 N          14.1353   40.1542    9.7322 N.ar    1  UNL1       -0.2159
      8 C          10.2347   41.5930   10.5035 C.3     1  UNL1        0.0603
      9 C           9.7040   41.0416   11.8306 C.3     1  UNL1        0.0094
     10 C           8.2433   41.4308   12.1129 C.3     1  UNL1        0.0219
     11 C           7.5916   42.2047   10.9663 C.3     1  UNL1        0.0935
     12 C           9.2898   41.2412    9.3523 C.3     1  UNL1        0.0993
     13 C           6.8449   41.1931    8.7864 C.2     1  UNL1        0.2559
     14 N           7.8991   41.5606    9.6892 N.am    1  UNL1       -0.2771
     15 O           7.1146   40.6260    7.6938 O.2     1  UNL1       -0.2721
     16 C           5.4189   41.5050    9.1004 C.3     1  UNL1        0.2272
     17 C           3.8675   43.0676    9.2198 C.3     1  UNL1        0.1748
     18 O           5.1111   42.7901    8.6546 O.3     1  UNL1       -0.3417
     19 N          14.2704   41.4454    7.6715 N.pl3   1  UNL1       -0.2679
     20 H          13.9152   41.1372    6.8066 H       1  UNL1        0.1565
     21 C          15.4371   42.2760    7.6329 C.ar    1  UNL1        0.2218
     22 C          17.6990   42.6845    8.2019 C.ar    1  UNL1        0.1034
     23 C          17.6586   43.9063    7.5330 C.ar    1  UNL1        0.0414
     24 C          16.4669   44.2825    6.9163 C.ar    1  UNL1        0.1034
     25 N          16.5943   41.8948    8.2402 N.ar    1  UNL1       -0.2120
     26 N          15.3830   43.4654    6.9767 N.ar    1  UNL1       -0.2120
@<TRIPOS>BOND
     1     1     2    1
     2     2     7   ar
     3     3     6   ar
     4     4     5   ar
     5     5    19    1
     6    21    26   ar
     7    22    25   ar
     8    23    24   ar
     9     8     3    1
    10     8     9    1
    11     9    10    1
    12    10    11    1
    13    11    14    1
    14    12    14    1
    15    12     8    1
    16    16    13    1
    17    16    18    1
    18    17    18    1
    19    19    21    1
    20    14    13   am
    21     2     6   ar
    22     3     4   ar
    23     5     7   ar
    24    21    25   ar
    25    22    23   ar
    26    24    26   ar
    27    13    15    2
    28    19    20    1
@<TRIPOS>MOLECULE
MolPort-020-278-773 MCULE-9791678562 PubChem-110255643
 26 28 0 0 0
SMALL
GASTEIGER

@<TRIPOS>ATOM
      1 C          10.6290   40.6113    5.0252 C.3     1  UNL1        0.0737
      2 C          11.1610   40.9601    6.3681 C.ar    1  UNL1        0.1406
      3 C          10.7739   41.5459    8.6261 C.ar    1  UNL1        0.0644
      4 C          12.1487   41.6054    8.8529 C.ar    1  UNL1        0.0492
      5 C          13.0142   41.3311    7.7944 C.ar    1  UNL1        0.1368
      6 N          10.3057   41.2246    7.3893 N.ar    1  UNL1       -0.2348
      7 N          12.5027   41.0140    6.5737 N.ar    1  UNL1       -0.2159
      8 C           9.8302   41.8365    9.7456 C.3     1  UNL1        0.0603
      9 C          10.1685   40.9895   10.9765 C.3     1  UNL1        0.0094
     10 C           9.1604   41.1534   12.1261 C.3     1  UNL1        0.0219
     11 C           7.9761   42.0519   11.7679 C.3     1  UNL1        0.0935
     12 C           8.3823   41.6048    9.3078 C.3     1  UNL1        0.0993
     13 C           6.0706   41.3921   10.2623 C.2     1  UNL1        0.2559
     14 N           7.4614   41.6982   10.4449 N.am    1  UNL1       -0.2771
     15 O           5.6355   41.0746    9.1230 O.2     1  UNL1       -0.2721
     16 C           5.1077   41.4786   11.4000 C.3     1  UNL1        0.2272
     17 C           2.9987   42.1229   11.4010 C.3     1  UNL1        0.1748
     18 O           3.8374   41.0968   10.9692 O.3     1  UNL1       -0.3417
     19 N          14.4282   41.3895    8.0170 N.pl3   1  UNL1       -0.2679
     20 H          14.8237   40.6662    8.5552 H       1  UNL1        0.1565
     21 C          15.3224   42.3984    7.5324 C.ar    1  UNL1        0.2218
     22 C          15.7665   44.2744    6.1575 C.ar    1  UNL1        0.1034
     23 C          17.0775   44.3228    6.6274 C.ar    1  UNL1        0.0414
     24 C          17.4782   43.3739    7.5659 C.ar    1  UNL1        0.1034
     25 N          14.9163   43.3189    6.6152 N.ar    1  UNL1       -0.2120
     26 N          16.5986   42.4335    7.9996 N.ar    1  UNL1       -0.2120
@<TRIPOS>BOND
     1     1     2    1
     2     2     7   ar
     3     3     6   ar
     4     4     5   ar
     5     5    19    1
     6    21    26   ar
     7    22    25   ar
     8    23    24   ar
     9     8     3    1
    10     8     9    1
    11     9    10    1
    12    10    11    1
    13    11    14    1
    14    12    14    1
    15    12     8    1
    16    16    13    1
    17    16    18    1
    18    17    18    1
    19    19    21    1
    20    14    13   am
    21     2     6   ar
    22     3     4   ar
    23     5     7   ar
    24    21    25   ar
    25    22    23   ar
    26    24    26   ar
    27    13    15    2
    28    19    20    1
@<TRIPOS>MOLECULE
MolPort-020-278-773 MCULE-9791678562 PubChem-110255643
 26 28 0 0 0
SMALL
GASTEIGER

@<TRIPOS>ATOM
      1 C          16.0231   44.5720    6.1945 C.3     1  UNL1        0.0737
      2 C          15.7519   43.3723    7.0282 C.ar    1  UNL1        0.1406
      3 C          14.2520   41.7028    7.7731 C.ar    1  UNL1        0.0644
      4 C          15.2529   41.1514    8.5726 C.ar    1  UNL1        0.0492
      5 C          16.5132   41.7484    8.5741 C.ar    1  UNL1        0.1368
      6 N          14.5194   42.8018    7.0163 N.ar    1  UNL1       -0.2348
      7 N          16.7370   42.8465    7.8018 N.ar    1  UNL1       -0.2159
      8 C          12.8958   41.0794    7.7574 C.3     1  UNL1        0.0603
      9 C          12.9454   39.6540    8.3168 C.3     1  UNL1        0.0094
     10 C          11.6020   38.9123    8.2178 C.3     1  UNL1        0.0219
     11 C          10.5205   39.7146    7.4932 C.3     1  UNL1        0.0935
     12 C          12.3117   41.0879    6.3430 C.3     1  UNL1        0.0993
     13 C          10.4321   40.0963    5.0073 C.2     1  UNL1        0.2559
     14 N          11.0706   40.3103    6.2753 N.am    1  UNL1       -0.2771
     15 O          10.9182   40.6004    3.9595 O.2     1  UNL1       -0.2721
     16 C           9.1671   39.3097    4.9055 C.3     1  UNL1        0.2272
     17 C           9.4199   38.0855    3.0888 C.3     1  UNL1        0.1748
     18 O           8.7749   39.2236    3.5699 O.3     1  UNL1       -0.3417
     19 N          17.5482   41.1896    9.3919 N.pl3   1  UNL1       -0.2679
     20 H          18.3123   41.7736    9.6026 H       1  UNL1        0.1565
     21 C          17.5791   39.8633    9.9328 C.ar    1  UNL1        0.2218
     22 C          18.5907   37.7297   10.1090 C.ar    1  UNL1        0.1034
     23 C          17.5992   37.3203   10.9983 C.ar    1  UNL1        0.0414
     24 C          16.5977   38.2290   11.3350 C.ar    1  UNL1        0.1034
     25 N          18.5641   38.9866    9.5944 N.ar    1  UNL1       -0.2120
     26 N          16.6051   39.4776   10.7993 N.ar    1  UNL1       -0.2120
@<TRIPOS>BOND
     1     1     2    1
     2     2     7   ar
     3     3     6   ar
     4     4     5   ar
     5     5    19    1
     6    21    26   ar
     7    22    25   ar
     8    23    24   ar
     9     8     3    1
    10     8     9    1
    11     9    10    1
    12    10    11    1
    13    11    14    1
    14    12    14    1
    15    12     8    1
    16    16    13    1
    17    16    18    1
    18    17    18    1
    19    19    21    1
    20    14    13   am
    21     2     6   ar
    22     3     4   ar
    23     5     7   ar
    24    21    25   ar
    25    22    23   ar
    26    24    26   ar
    27    13    15    2
    28    19    20    1
