@<TRIPOS>MOLECULE
MolPort-047-015-618 MCULE-3909583374 PubChem-155985359
 24 26 0 0 0
SMALL
GASTEIGER

@<TRIPOS>ATOM
      1 C          12.4224   41.7907    6.6048 C.ar    1  UNL1        0.1361
      2 C          13.2207   41.4216    7.6871 C.ar    1  UNL1        0.0492
      3 C          12.7728   40.4073    8.5335 C.ar    1  UNL1        0.0641
      4 C          10.8110   40.1743    7.2336 C.ar    1  UNL1        0.1406
      5 C           9.5118   39.4974    6.9836 C.3     1  UNL1        0.0737
      6 N          11.5782   39.8013    8.2908 N.ar    1  UNL1       -0.2349
      7 N          11.2335   41.1613    6.4008 N.ar    1  UNL1       -0.2159
      8 C          13.6096   39.9978    9.6994 C.3     1  UNL1        0.0564
      9 C          15.0981   40.1258    9.3692 C.3     1  UNL1        0.0087
     10 C          15.9645   39.5740   10.5047 C.3     1  UNL1        0.0178
     11 C          15.3825   38.2941   11.1209 C.3     1  UNL1        0.0722
     12 C          13.2266   38.5833   10.1719 C.3     1  UNL1        0.0781
     13 N          14.3842   37.6887   10.2393 N.3     1  UNL1       -0.2702
     14 C          13.9289   36.4667   10.8827 C.3     1  UNL1        0.1046
     15 C          13.6176   35.4078    9.8383 C.3     1  UNL1        0.1595
     16 C          11.6822   35.6161   10.8782 C.3     1  UNL1        0.1742
     17 O          12.4853   34.6863   10.2180 O.3     1  UNL1       -0.3496
     18 N          12.8705   42.8309    5.7293 N.pl3   1  UNL1       -0.2781
     19 H          12.3197   43.0208    4.9357 H       1  UNL1        0.1555
     20 C          14.0519   43.6178    5.9109 C.ar    1  UNL1        0.1646
     21 C          16.2561   44.5292    6.5146 C.ar    1  UNL1        0.0588
     22 C          15.4397   45.3731    5.7590 C.ar    1  UNL1        0.1079
     23 N          14.2209   44.8655    5.4285 N.ar    1  UNL1       -0.2224
     24 S          15.3956   43.1008    6.7629 S.2     1  UNL1       -0.0508
@<TRIPOS>BOND
     1     1    18    1
     2     1     7   ar
     3     2     3   ar
     4     8     3    1
     5     8     9    1
     6     9    10    1
     7    10    11    1
     8    11    13    1
     9    14    13    1
    10    14    15    1
    11    15    17    1
    12    16    17    1
    13    12    13    1
    14    12     8    1
    15     4     6   ar
    16     5     4    1
    17    20    24   ar
    18    21    24   ar
    19    22    23   ar
    20    18    20    1
    21     1     2   ar
    22     3     6   ar
    23     4     7   ar
    24    20    23   ar
    25    21    22   ar
    26    18    19    1
@<TRIPOS>MOLECULE
MolPort-047-015-618 MCULE-3909583374 PubChem-155985359
 24 26 0 0 0
SMALL
GASTEIGER

@<TRIPOS>ATOM
      1 C          13.2982   41.8666    7.1467 C.ar    1  UNL1        0.1361
      2 C          13.4772   41.0618    8.2714 C.ar    1  UNL1        0.0492
      3 C          12.3625   40.4383    8.8320 C.ar    1  UNL1        0.0641
      4 C          10.9751   41.4124    7.1830 C.ar    1  UNL1        0.1406
      5 C           9.6250   41.5979    6.5900 C.3     1  UNL1        0.0737
      6 N          11.1330   40.6230    8.2773 N.ar    1  UNL1       -0.2349
      7 N          12.0513   42.0271    6.6262 N.ar    1  UNL1       -0.2159
      8 C          12.5301   39.5745   10.0375 C.3     1  UNL1        0.0564
      9 C          13.8949   39.8108   10.6873 C.3     1  UNL1        0.0087
     10 C          14.1353   38.8298   11.8380 C.3     1  UNL1        0.0178
     11 C          13.6263   37.4162   11.5229 C.3     1  UNL1        0.0722
     12 C          12.2904   38.0956    9.6827 C.3     1  UNL1        0.0781
     13 N          13.4082   37.2401   10.0870 N.3     1  UNL1       -0.2702
     14 C          12.9756   35.8667    9.8844 C.3     1  UNL1        0.1046
     15 C          14.1160   35.0341    9.3231 C.3     1  UNL1        0.1595
     16 C          15.9745   35.5546    8.2527 C.3     1  UNL1        0.1742
     17 O          15.3221   35.7192    9.4744 O.3     1  UNL1       -0.3496
     18 N          14.4342   42.5128    6.5625 N.pl3   1  UNL1       -0.2781
     19 H          14.3794   42.7449    5.6073 H       1  UNL1        0.1555
     20 C          15.6430   42.8499    7.2506 C.ar    1  UNL1        0.1646
     21 C          17.6965   43.8891    8.1205 C.ar    1  UNL1        0.0588
     22 C          17.3811   42.6370    8.6519 C.ar    1  UNL1        0.1079
     23 N          16.2451   42.0652    8.1668 N.ar    1  UNL1       -0.2224
     24 S          16.4912   44.2708    7.0052 S.2     1  UNL1       -0.0508
@<TRIPOS>BOND
     1     1    18    1
     2     1     7   ar
     3     2     3   ar
     4     8     3    1
     5     8     9    1
     6     9    10    1
     7    10    11    1
     8    11    13    1
     9    14    13    1
    10    14    15    1
    11    15    17    1
    12    16    17    1
    13    12    13    1
    14    12     8    1
    15     4     6   ar
    16     5     4    1
    17    20    24   ar
    18    21    24   ar
    19    22    23   ar
    20    18    20    1
    21     1     2   ar
    22     3     6   ar
    23     4     7   ar
    24    20    23   ar
    25    21    22   ar
    26    18    19    1
@<TRIPOS>MOLECULE
MolPort-047-015-618 MCULE-3909583374 PubChem-155985359
 24 26 0 0 0
SMALL
GASTEIGER

@<TRIPOS>ATOM
      1 C          13.7139   42.4105    6.5132 C.ar    1  UNL1        0.1361
      2 C          13.9461   41.5258    7.5659 C.ar    1  UNL1        0.0492
      3 C          15.1772   41.5728    8.2200 C.ar    1  UNL1        0.0641
      4 C          15.8791   43.3253    6.7956 C.ar    1  UNL1        0.1406
      5 C          16.9200   44.3022    6.3821 C.3     1  UNL1        0.0737
      6 N          16.1199   42.4719    7.8248 N.ar    1  UNL1       -0.2349
      7 N          14.6850   43.2908    6.1481 N.ar    1  UNL1       -0.2159
      8 C          15.4485   40.6336    9.3477 C.3     1  UNL1        0.0564
      9 C          16.9533   40.4941    9.5861 C.3     1  UNL1        0.0087
     10 C          17.2478   39.4264   10.6433 C.3     1  UNL1        0.0178
     11 C          16.3353   38.1990   10.5107 C.3     1  UNL1        0.0722
     12 C          14.7588   39.2789    9.1033 C.3     1  UNL1        0.0781
     13 N          15.6941   38.1557    9.1965 N.3     1  UNL1       -0.2702
     14 C          14.8935   36.9427    9.1499 C.3     1  UNL1        0.1046
     15 C          13.4194   37.2905    9.0279 C.3     1  UNL1        0.1595
     16 C          13.4006   35.2136    9.7740 C.3     1  UNL1        0.1742
     17 O          12.6573   36.3938    9.7776 O.3     1  UNL1       -0.3496
     18 N          12.4548   42.3716    5.8332 N.pl3   1  UNL1       -0.2781
     19 H          12.3438   42.9647    5.0554 H       1  UNL1        0.1555
     20 C          11.3438   41.5427    6.1893 C.ar    1  UNL1        0.1646
     21 C           9.5952   39.8202    6.3596 C.ar    1  UNL1        0.0588
     22 C           9.5403   40.8337    7.3184 C.ar    1  UNL1        0.1079
     23 N          10.5086   41.7852    7.2196 N.ar    1  UNL1       -0.2224
     24 S          10.9152   40.1518    5.3645 S.2     1  UNL1       -0.0508
@<TRIPOS>BOND
     1     1    18    1
     2     1     7   ar
     3     2     3   ar
     4     8     3    1
     5     8     9    1
     6     9    10    1
     7    10    11    1
     8    11    13    1
     9    14    13    1
    10    14    15    1
    11    15    17    1
    12    16    17    1
    13    12    13    1
    14    12     8    1
    15     4     6   ar
    16     5     4    1
    17    20    24   ar
    18    21    24   ar
    19    22    23   ar
    20    18    20    1
    21     1     2   ar
    22     3     6   ar
    23     4     7   ar
    24    20    23   ar
    25    21    22   ar
    26    18    19    1
@<TRIPOS>MOLECULE
MolPort-047-015-618 MCULE-3909583374 PubChem-155985359
 24 26 0 0 0
SMALL
GASTEIGER

@<TRIPOS>ATOM
      1 C          12.2891   41.6973    6.8372 C.ar    1  UNL1        0.1361
      2 C          10.9024   41.8239    6.9135 C.ar    1  UNL1        0.0492
      3 C          10.2263   41.1660    7.9411 C.ar    1  UNL1        0.0641
      4 C          12.2743   40.3057    8.7524 C.ar    1  UNL1        0.1406
      5 C          13.0177   39.4910    9.7485 C.3     1  UNL1        0.0737
      6 N          10.9237   40.4211    8.8422 N.ar    1  UNL1       -0.2349
      7 N          12.9468   40.9399    7.7565 N.ar    1  UNL1       -0.2159
      8 C           8.7420   41.2853    8.0406 C.3     1  UNL1        0.0564
      9 C           8.2682   42.6295    7.4841 C.3     1  UNL1        0.0087
     10 C           6.7664   42.8222    7.7115 C.3     1  UNL1        0.0178
     11 C           6.3083   42.3117    9.0849 C.3     1  UNL1        0.0722
     12 C           8.2743   41.0447    9.4877 C.3     1  UNL1        0.0781
     13 N           7.4436   42.1407    9.9916 N.3     1  UNL1       -0.2702
     14 C           6.9085   41.7031   11.2708 C.3     1  UNL1        0.1046
     15 C           7.8939   42.0114   12.3856 C.3     1  UNL1        0.1595
     16 C           9.1629   41.1482   13.9715 C.3     1  UNL1        0.1742
     17 O           8.5946   40.8555   12.7318 O.3     1  UNL1       -0.3496
     18 N          12.9946   42.3668    5.7867 N.pl3   1  UNL1       -0.2781
     19 H          12.7349   42.1529    4.8615 H       1  UNL1        0.1555
     20 C          14.0456   43.3208    5.9687 C.ar    1  UNL1        0.1646
     21 C          16.0750   44.5611    6.5986 C.ar    1  UNL1        0.0588
     22 C          15.1770   45.2480    5.7793 C.ar    1  UNL1        0.1079
     23 N          14.0552   44.5587    5.4344 N.ar    1  UNL1       -0.2224
     24 S          15.4156   43.0363    6.8858 S.2     1  UNL1       -0.0508
@<TRIPOS>BOND
     1     1    18    1
     2     1     7   ar
     3     2     3   ar
     4     8     3    1
     5     8     9    1
     6     9    10    1
     7    10    11    1
     8    11    13    1
     9    14    13    1
    10    14    15    1
    11    15    17    1
    12    16    17    1
    13    12    13    1
    14    12     8    1
    15     4     6   ar
    16     5     4    1
    17    20    24   ar
    18    21    24   ar
    19    22    23   ar
    20    18    20    1
    21     1     2   ar
    22     3     6   ar
    23     4     7   ar
    24    20    23   ar
    25    21    22   ar
    26    18    19    1
@<TRIPOS>MOLECULE
MolPort-047-015-618 MCULE-3909583374 PubChem-155985359
 24 26 0 0 0
SMALL
GASTEIGER

@<TRIPOS>ATOM
      1 C          11.8829   41.7596    7.0775 C.ar    1  UNL1        0.1361
      2 C          10.5024   41.8967    6.9346 C.ar    1  UNL1        0.0492
      3 C           9.6776   41.4875    7.9823 C.ar    1  UNL1        0.0641
      4 C          11.5746   40.8389    9.2367 C.ar    1  UNL1        0.1406
      5 C          12.1558   40.2733   10.4821 C.3     1  UNL1        0.0737
      6 N          10.2279   40.9683    9.1141 N.ar    1  UNL1       -0.2349
      7 N          12.3910   41.2322    8.2243 N.ar    1  UNL1       -0.2159
      8 C           8.1972   41.6225    7.8502 C.3     1  UNL1        0.0564
      9 C           7.8138   43.0616    7.4995 C.3     1  UNL1        0.0087
     10 C           6.2936   43.2439    7.5023 C.3     1  UNL1        0.0178
     11 C           5.6115   42.4844    8.6489 C.3     1  UNL1        0.0722
     12 C           7.4905   41.1133    9.1198 C.3     1  UNL1        0.0781
     13 N           6.5761   42.1092    9.6828 N.3     1  UNL1       -0.2702
     14 C           5.8335   41.4417   10.7399 C.3     1  UNL1        0.1046
     15 C           4.5471   42.1949   11.0343 C.3     1  UNL1        0.1595
     16 C           2.4760   42.0909   11.7897 C.3     1  UNL1        0.1742
     17 O           3.6751   41.3792   11.7564 O.3     1  UNL1       -0.3496
     18 N          12.7402   42.1750    6.0090 N.pl3   1  UNL1       -0.2781
     19 H          12.5807   41.7777    5.1224 H       1  UNL1        0.1555
     20 C          13.8097   43.1192    6.1214 C.ar    1  UNL1        0.1646
     21 C          15.8707   44.3557    6.6476 C.ar    1  UNL1        0.0588
     22 C          14.9674   45.0148    5.8113 C.ar    1  UNL1        0.1079
     23 N          13.8282   44.3278    5.5240 N.ar    1  UNL1       -0.2224
     24 S          15.1931   42.8589    7.0254 S.2     1  UNL1       -0.0508
@<TRIPOS>BOND
     1     1    18    1
     2     1     7   ar
     3     2     3   ar
     4     8     3    1
     5     8     9    1
     6     9    10    1
     7    10    11    1
     8    11    13    1
     9    14    13    1
    10    14    15    1
    11    15    17    1
    12    16    17    1
    13    12    13    1
    14    12     8    1
    15     4     6   ar
    16     5     4    1
    17    20    24   ar
    18    21    24   ar
    19    22    23   ar
    20    18    20    1
    21     1     2   ar
    22     3     6   ar
    23     4     7   ar
    24    20    23   ar
    25    21    22   ar
    26    18    19    1
@<TRIPOS>MOLECULE
MolPort-047-015-618 MCULE-3909583374 PubChem-155985359
 24 26 0 0 0
SMALL
GASTEIGER

@<TRIPOS>ATOM
      1 C          15.5627   41.5097    8.3181 C.ar    1  UNL1        0.1361
      2 C          14.2011   41.3907    8.0409 C.ar    1  UNL1        0.0492
      3 C          13.5950   42.3571    7.2381 C.ar    1  UNL1        0.0641
      4 C          15.6597   43.4906    7.0253 C.ar    1  UNL1        0.1406
      5 C          16.4504   44.6209    6.4725 C.3     1  UNL1        0.0737
      6 N          14.3347   43.3875    6.7438 N.ar    1  UNL1       -0.2349
      7 N          16.2640   42.5575    7.8066 N.ar    1  UNL1       -0.2159
      8 C          12.1385   42.2512    6.9305 C.3     1  UNL1        0.0564
      9 C          11.3343   41.9817    8.2039 C.3     1  UNL1        0.0087
     10 C           9.8589   41.7292    7.8816 C.3     1  UNL1        0.0178
     11 C           9.6692   40.8840    6.6142 C.3     1  UNL1        0.0722
     12 C          11.8902   41.1952    5.8379 C.3     1  UNL1        0.0781
     13 N          10.9055   40.1922    6.2495 N.3     1  UNL1       -0.2702
     14 C          10.6154   39.3870    5.0740 C.3     1  UNL1        0.1046
     15 C           9.1553   39.5377    4.6813 C.3     1  UNL1        0.1595
     16 C           9.5873   38.3020    2.9045 C.3     1  UNL1        0.1742
     17 O           9.0344   39.5227    3.2913 O.3     1  UNL1       -0.3496
     18 N          16.1963   40.5248    9.1415 N.pl3   1  UNL1       -0.2781
     19 H          17.1652   40.3952    9.0249 H       1  UNL1        0.1555
     20 C          15.5394   39.7130   10.1201 C.ar    1  UNL1        0.1646
     21 C          14.8919   38.0385   11.8024 C.ar    1  UNL1        0.0588
     22 C          13.9082   38.9716   11.4689 C.ar    1  UNL1        0.1079
     23 N          14.2701   39.8951   10.5369 N.ar    1  UNL1       -0.2224
     24 S          16.2556   38.4073   10.8822 S.2     1  UNL1       -0.0508
@<TRIPOS>BOND
     1     1    18    1
     2     1     7   ar
     3     2     3   ar
     4     8     3    1
     5     8     9    1
     6     9    10    1
     7    10    11    1
     8    11    13    1
     9    14    13    1
    10    14    15    1
    11    15    17    1
    12    16    17    1
    13    12    13    1
    14    12     8    1
    15     4     6   ar
    16     5     4    1
    17    20    24   ar
    18    21    24   ar
    19    22    23   ar
    20    18    20    1
    21     1     2   ar
    22     3     6   ar
    23     4     7   ar
    24    20    23   ar
    25    21    22   ar
    26    18    19    1
@<TRIPOS>MOLECULE
MolPort-047-015-618 MCULE-3909583374 PubChem-155985359
 24 26 0 0 0
SMALL
GASTEIGER

@<TRIPOS>ATOM
      1 C          12.2589   41.6070    7.0539 C.ar    1  UNL1        0.1361
      2 C          10.9011   41.2998    6.9711 C.ar    1  UNL1        0.0492
      3 C          10.3041   40.6164    8.0304 C.ar    1  UNL1        0.0641
      4 C          12.3707   40.5703    9.1794 C.ar    1  UNL1        0.1406
      5 C          13.1647   40.1824   10.3743 C.3     1  UNL1        0.0737
      6 N          11.0483   40.2659    9.1152 N.ar    1  UNL1       -0.2349
      7 N          12.9666   41.2349    8.1549 N.ar    1  UNL1       -0.2159
      8 C           8.8529   40.2749    7.9621 C.3     1  UNL1        0.0564
      9 C           8.3929   40.1540    6.5079 C.3     1  UNL1        0.0087
     10 C           6.8783   39.9459    6.4239 C.3     1  UNL1        0.0178
     11 C           6.1094   40.7964    7.4447 C.3     1  UNL1        0.0722
     12 C           8.0185   41.2893    8.7656 C.3     1  UNL1        0.0781
     13 N           6.9430   41.8798    7.9658 N.3     1  UNL1       -0.2702
     14 C           6.1191   42.6519    8.8820 C.3     1  UNL1        0.1046
     15 C           5.7396   43.9822    8.2533 C.3     1  UNL1        0.1595
     16 C           3.8148   43.3112    9.0992 C.3     1  UNL1        0.1742
     17 O           4.5602   44.4582    8.8272 O.3     1  UNL1       -0.3496
     18 N          12.8836   42.3073    5.9729 N.pl3   1  UNL1       -0.2781
     19 H          12.5569   42.1172    5.0638 H       1  UNL1        0.1555
     20 C          13.9431   43.2605    6.1027 C.ar    1  UNL1        0.1646
     21 C          15.9985   44.5023    6.6386 C.ar    1  UNL1        0.0588
     22 C          15.0706   45.1824    5.8474 C.ar    1  UNL1        0.1079
     23 N          13.9345   44.4922    5.5545 N.ar    1  UNL1       -0.2224
     24 S          15.3473   42.9826    6.9686 S.2     1  UNL1       -0.0508
@<TRIPOS>BOND
     1     1    18    1
     2     1     7   ar
     3     2     3   ar
     4     8     3    1
     5     8     9    1
     6     9    10    1
     7    10    11    1
     8    11    13    1
     9    14    13    1
    10    14    15    1
    11    15    17    1
    12    16    17    1
    13    12    13    1
    14    12     8    1
    15     4     6   ar
    16     5     4    1
    17    20    24   ar
    18    21    24   ar
    19    22    23   ar
    20    18    20    1
    21     1     2   ar
    22     3     6   ar
    23     4     7   ar
    24    20    23   ar
    25    21    22   ar
    26    18    19    1
@<TRIPOS>MOLECULE
MolPort-047-015-618 MCULE-3909583374 PubChem-155985359
 24 26 0 0 0
SMALL
GASTEIGER

@<TRIPOS>ATOM
      1 C          12.7036   41.7931    8.0175 C.ar    1  UNL1        0.1361
      2 C          11.4959   42.1820    8.5965 C.ar    1  UNL1        0.0492
      3 C          11.1642   41.6781    9.8541 C.ar    1  UNL1        0.0641
      4 C          13.1873   40.4546    9.9094 C.ar    1  UNL1        0.1406
      5 C          14.1050   39.5264   10.6199 C.3     1  UNL1        0.0737
      6 N          12.0157   40.8259   10.4882 N.ar    1  UNL1       -0.2349
      7 N          13.5238   40.9364    8.6843 N.ar    1  UNL1       -0.2159
      8 C           9.8756   42.0787   10.4917 C.3     1  UNL1        0.0564
      9 C           9.5171   41.1256   11.6335 C.3     1  UNL1        0.0087
     10 C           8.1300   41.4407   12.2002 C.3     1  UNL1        0.0178
     11 C           7.1163   41.8064   11.1069 C.3     1  UNL1        0.0722
     12 C           8.7592   42.1870    9.4370 C.3     1  UNL1        0.0781
     13 N           7.5856   41.3839    9.7873 N.3     1  UNL1       -0.2702
     14 C           6.5452   41.7285    8.8317 C.3     1  UNL1        0.1046
     15 C           5.1919   41.2550    9.3349 C.3     1  UNL1        0.1595
     16 C           3.2994   42.0953   10.0984 C.3     1  UNL1        0.1742
     17 O           4.2201   42.2171    9.0577 O.3     1  UNL1       -0.3496
     18 N          13.0551   42.3026    6.7267 N.pl3   1  UNL1       -0.2781
     19 H          12.5592   41.9505    5.9526 H       1  UNL1        0.1555
     20 C          14.0671   43.2807    6.4672 C.ar    1  UNL1        0.1646
     21 C          16.1173   44.6357    6.3481 C.ar    1  UNL1        0.0588
     22 C          15.0194   45.1380    5.6466 C.ar    1  UNL1        0.1079
     23 N          13.8871   44.3860    5.7164 N.ar    1  UNL1       -0.2224
     24 S          15.6244   43.1953    7.0725 S.2     1  UNL1       -0.0508
@<TRIPOS>BOND
     1     1    18    1
     2     1     7   ar
     3     2     3   ar
     4     8     3    1
     5     8     9    1
     6     9    10    1
     7    10    11    1
     8    11    13    1
     9    14    13    1
    10    14    15    1
    11    15    17    1
    12    16    17    1
    13    12    13    1
    14    12     8    1
    15     4     6   ar
    16     5     4    1
    17    20    24   ar
    18    21    24   ar
    19    22    23   ar
    20    18    20    1
    21     1     2   ar
    22     3     6   ar
    23     4     7   ar
    24    20    23   ar
    25    21    22   ar
    26    18    19    1
@<TRIPOS>MOLECULE
MolPort-047-015-618 MCULE-3909583374 PubChem-155985359
 24 26 0 0 0
SMALL
GASTEIGER

@<TRIPOS>ATOM
      1 C           7.6847   41.7940   10.8849 C.ar    1  UNL1        0.1361
      2 C           8.7333   41.3944   10.0569 C.ar    1  UNL1        0.0492
      3 C           9.9142   40.9411   10.6447 C.ar    1  UNL1        0.0641
      4 C           8.9916   41.2914   12.7939 C.ar    1  UNL1        0.1406
      5 C           9.1272   41.2306   14.2726 C.3     1  UNL1        0.0737
      6 N          10.0215   40.8960   12.0011 N.ar    1  UNL1       -0.2349
      7 N           7.8352   41.7362   12.2360 N.ar    1  UNL1       -0.2159
      8 C          11.0505   40.5109    9.7780 C.3     1  UNL1        0.0564
      9 C          12.3539   40.4632   10.5778 C.3     1  UNL1        0.0087
     10 C          13.5485   40.1627    9.6686 C.3     1  UNL1        0.0178
     11 C          13.4574   40.8866    8.3179 C.3     1  UNL1        0.0722
     12 C          11.1522   41.4089    8.5315 C.3     1  UNL1        0.0781
     13 N          12.4899   41.9827    8.3691 N.3     1  UNL1       -0.2702
     14 C          12.5089   42.6324    7.0683 C.3     1  UNL1        0.1046
     15 C          13.8569   43.2920    6.8303 C.3     1  UNL1        0.1595
     16 C          15.0148   44.4411    5.3438 C.3     1  UNL1        0.1742
     17 O          13.7306   44.2944    5.8679 O.3     1  UNL1       -0.3496
     18 N           6.4677   42.2621   10.2939 N.pl3   1  UNL1       -0.2781
     19 H           5.6312   42.0801   10.7801 H       1  UNL1        0.1555
     20 C           6.3652   42.9723    9.0558 C.ar    1  UNL1        0.1646
     21 C           6.5740   43.8284    6.7586 C.ar    1  UNL1        0.0588
     22 C           5.6768   44.5142    7.5797 C.ar    1  UNL1        0.1079
     23 N           5.5654   44.0381    8.8500 N.ar    1  UNL1       -0.2224
     24 S           7.2378   42.5840    7.6823 S.2     1  UNL1       -0.0508
@<TRIPOS>BOND
     1     1    18    1
     2     1     7   ar
     3     2     3   ar
     4     8     3    1
     5     8     9    1
     6     9    10    1
     7    10    11    1
     8    11    13    1
     9    14    13    1
    10    14    15    1
    11    15    17    1
    12    16    17    1
    13    12    13    1
    14    12     8    1
    15     4     6   ar
    16     5     4    1
    17    20    24   ar
    18    21    24   ar
    19    22    23   ar
    20    18    20    1
    21     1     2   ar
    22     3     6   ar
    23     4     7   ar
    24    20    23   ar
    25    21    22   ar
    26    18    19    1
@<TRIPOS>MOLECULE
MolPort-047-015-618 MCULE-3909583374 PubChem-155985359
 24 26 0 0 0
SMALL
GASTEIGER

@<TRIPOS>ATOM
      1 C          12.8574   41.6365    7.9212 C.ar    1  UNL1        0.1361
      2 C          11.5836   42.0692    8.2888 C.ar    1  UNL1        0.0492
      3 C          11.0748   41.6754    9.5265 C.ar    1  UNL1        0.0641
      4 C          13.0603   40.4702    9.9714 C.ar    1  UNL1        0.1406
      5 C          13.8618   39.6114   10.8817 C.3     1  UNL1        0.0737
      6 N          11.8221   40.8854   10.3454 N.ar    1  UNL1       -0.2349
      7 N          13.5692   40.8447    8.7685 N.ar    1  UNL1       -0.2159
      8 C           9.7128   42.1245    9.9395 C.3     1  UNL1        0.0564
      9 C           9.2556   41.3816   11.1964 C.3     1  UNL1        0.0087
     10 C           7.8060   41.7290   11.5461 C.3     1  UNL1        0.0178
     11 C           6.9106   41.8388   10.3039 C.3     1  UNL1        0.0722
     12 C           8.7181   41.9837    8.7727 C.3     1  UNL1        0.0781
     13 N           7.5352   41.2037    9.1434 N.3     1  UNL1       -0.2702
     14 C           6.5986   41.3168    8.0370 C.3     1  UNL1        0.1046
     15 C           7.3274   41.7416    6.7731 C.3     1  UNL1        0.1595
     16 C           6.4563   39.7909    6.2194 C.3     1  UNL1        0.1742
     17 O           6.8450   41.0179    5.6820 O.3     1  UNL1       -0.3496
     18 N          13.3905   42.0330    6.6532 N.pl3   1  UNL1       -0.2781
     19 H          13.1298   41.4998    5.8677 H       1  UNL1        0.1555
     20 C          14.2709   43.1393    6.4316 C.ar    1  UNL1        0.1646
     21 C          16.1332   44.7460    6.3683 C.ar    1  UNL1        0.0588
     22 C          14.9815   45.1285    5.6778 C.ar    1  UNL1        0.1079
     23 N          13.9533   44.2375    5.7166 N.ar    1  UNL1       -0.2224
     24 S          15.8257   43.2314    7.0421 S.2     1  UNL1       -0.0508
@<TRIPOS>BOND
     1     1    18    1
     2     1     7   ar
     3     2     3   ar
     4     8     3    1
     5     8     9    1
     6     9    10    1
     7    10    11    1
     8    11    13    1
     9    14    13    1
    10    14    15    1
    11    15    17    1
    12    16    17    1
    13    12    13    1
    14    12     8    1
    15     4     6   ar
    16     5     4    1
    17    20    24   ar
    18    21    24   ar
    19    22    23   ar
    20    18    20    1
    21     1     2   ar
    22     3     6   ar
    23     4     7   ar
    24    20    23   ar
    25    21    22   ar
    26    18    19    1
