@<TRIPOS>MOLECULE
Molport-052-050-200 MCULE-5841702432 PubChem-110093686
 32 36 0 0 0
SMALL
GASTEIGER

@<TRIPOS>ATOM
      1 C          12.8860   39.7812   11.5016 C.3     1  UNL1        0.0220
      2 C          12.4379   40.3989   10.1792 C.3     1  UNL1        0.0094
      3 C          12.5578   39.3753    9.0481 C.3     1  UNL1        0.0602
      4 C          13.9908   38.8521    8.9455 C.3     1  UNL1        0.0996
      5 C          14.3220   39.2790   11.3831 C.3     1  UNL1        0.0937
      6 C          14.7719   36.9812   10.4722 C.2     1  UNL1        0.2491
      7 N          14.4277   38.3619   10.2507 N.am    1  UNL1       -0.2757
      8 O          14.6880   36.5087   11.6393 O.2     1  UNL1       -0.2699
      9 C          15.2287   36.0919    9.3778 C.ar    1  UNL1        0.0568
     10 C          16.2977   36.4526    8.5418 C.ar    1  UNL1        0.0446
     11 C          16.7306   35.5865    7.5353 C.ar    1  UNL1        0.1725
     12 C          16.0887   34.3563    7.3439 C.ar    1  UNL1        0.1724
     13 C          15.0433   33.9743    8.1866 C.ar    1  UNL1        0.0402
     14 C          14.6191   34.8386    9.2013 C.ar    1  UNL1        0.0078
     15 C          17.3712   34.0170    5.2748 C.3     1  UNL1        0.2526
     16 C          18.4261   34.9533    5.8693 C.3     1  UNL1        0.2526
     17 O          16.5120   33.5231    6.3048 O.3     1  UNL1       -0.4684
     18 O          17.8053   35.9292    6.7099 O.3     1  UNL1       -0.4684
     19 C          12.1039   39.9545    7.7463 C.ar    1  UNL1        0.0617
     20 C          12.2888   41.7012    6.1355 C.ar    1  UNL1        0.1328
     21 C          11.3130   41.0856    5.3404 C.ar    1  UNL1        0.0344
     22 C          10.7317   39.8902    5.7632 C.ar    1  UNL1        0.0041
     23 C          11.1255   39.3170    6.9718 C.ar    1  UNL1        0.0149
     24 N          12.6541   41.1204    7.3110 N.ar    1  UNL1       -0.2348
     25 N          12.9174   42.9309    5.7473 N.pl3   1  UNL1       -0.2821
     26 H          12.3940   43.5207    5.1579 H       1  UNL1        0.1551
     27 C          14.2208   43.3997    6.1193 C.ar    1  UNL1        0.1526
     28 C          16.2571   43.1389    7.3077 C.ar    1  UNL1        0.1210
     29 C          16.7130   44.3539    6.7950 C.ar    1  UNL1        0.1196
     30 C          14.6807   44.6150    5.6076 C.ar    1  UNL1        0.1332
     31 N          15.0230   42.6891    6.9589 N.ar    1  UNL1       -0.2258
     32 N          15.9150   45.0655    5.9561 N.ar    1  UNL1       -0.2378
@<TRIPOS>BOND
     1     1     2    1
     2     2     3    1
     3     3     4    1
     4     3    19    1
     5     4     7    1
     6     5     7    1
     7     5     1    1
     8     6     9    1
     9    10    11   ar
    10    11    18    1
    11    12    13   ar
    12    12    17    1
    13    14     9   ar
    14    15    17    1
    15    15    16    1
    16    16    18    1
    17    20    24   ar
    18    20    25    1
    19    21    22   ar
    20    23    19   ar
    21    28    31   ar
    22    29    32   ar
    23    30    27   ar
    24     7     6   am
    25    25    27    1
    26     6     8    2
    27     9    10   ar
    28    11    12   ar
    29    13    14   ar
    30    19    24   ar
    31    20    21   ar
    32    22    23   ar
    33    27    31   ar
    34    28    29   ar
    35    30    32   ar
    36    25    26    1
@<TRIPOS>MOLECULE
Molport-052-050-200 MCULE-5841702432 PubChem-110093686
 32 36 0 0 0
SMALL
GASTEIGER

@<TRIPOS>ATOM
      1 C           9.3118   39.0046    7.2565 C.3     1  UNL1        0.0220
      2 C          10.1217   38.1290    8.2098 C.3     1  UNL1        0.0094
      3 C          11.3434   38.8939    8.7237 C.3     1  UNL1        0.0602
      4 C          12.2086   39.3721    7.5575 C.3     1  UNL1        0.0996
      5 C          10.1884   39.4590    6.0931 C.3     1  UNL1        0.0937
      6 C          11.6153   41.5132    6.3306 C.2     1  UNL1        0.2491
      7 N          11.3844   40.1195    6.6105 N.am    1  UNL1       -0.2757
      8 O          10.6597   42.2188    5.9047 O.2     1  UNL1       -0.2699
      9 C          12.9399   42.1514    6.5186 C.ar    1  UNL1        0.0568
     10 C          13.8712   41.6435    7.4387 C.ar    1  UNL1        0.0446
     11 C          15.1247   42.2431    7.5788 C.ar    1  UNL1        0.1725
     12 C          15.4548   43.3673    6.8109 C.ar    1  UNL1        0.1724
     13 C          14.5481   43.8643    5.8729 C.ar    1  UNL1        0.0402
     14 C          13.2977   43.2549    5.7263 C.ar    1  UNL1        0.0078
     15 C          17.5057   43.6597    8.1335 C.3     1  UNL1        0.2526
     16 C          17.4286   42.1614    8.4371 C.3     1  UNL1        0.2526
     17 O          16.6991   43.9758    6.9966 O.3     1  UNL1       -0.4684
     18 O          16.0648   41.7338    8.4791 O.3     1  UNL1       -0.4684
     19 C          12.1399   38.0603    9.6760 C.ar    1  UNL1        0.0617
     20 C          14.0375   37.8792   11.1064 C.ar    1  UNL1        0.1328
     21 C          13.6651   36.5734   11.4527 C.ar    1  UNL1        0.0344
     22 C          12.5142   36.0139   10.8975 C.ar    1  UNL1        0.0041
     23 C          11.7437   36.7569   10.0038 C.ar    1  UNL1        0.0149
     24 N          13.2675   38.5817   10.2312 N.ar    1  UNL1       -0.2348
     25 N          15.2113   38.5011   11.6481 N.pl3   1  UNL1       -0.2821
     26 H          15.0674   39.1304   12.3915 H       1  UNL1        0.1551
     27 C          16.5703   38.3115   11.2310 C.ar    1  UNL1        0.1526
     28 C          18.5050   36.9551   11.0213 C.ar    1  UNL1        0.1210
     29 C          19.1799   38.0108   10.4075 C.ar    1  UNL1        0.1196
     30 C          17.2487   39.3658   10.6156 C.ar    1  UNL1        0.1332
     31 N          17.2169   37.1283   11.4187 N.ar    1  UNL1       -0.2258
     32 N          18.5371   39.1932   10.2179 N.ar    1  UNL1       -0.2378
@<TRIPOS>BOND
     1     1     2    1
     2     2     3    1
     3     3     4    1
     4     3    19    1
     5     4     7    1
     6     5     7    1
     7     5     1    1
     8     6     9    1
     9    10    11   ar
    10    11    18    1
    11    12    13   ar
    12    12    17    1
    13    14     9   ar
    14    15    17    1
    15    15    16    1
    16    16    18    1
    17    20    24   ar
    18    20    25    1
    19    21    22   ar
    20    23    19   ar
    21    28    31   ar
    22    29    32   ar
    23    30    27   ar
    24     7     6   am
    25    25    27    1
    26     6     8    2
    27     9    10   ar
    28    11    12   ar
    29    13    14   ar
    30    19    24   ar
    31    20    21   ar
    32    22    23   ar
    33    27    31   ar
    34    28    29   ar
    35    30    32   ar
    36    25    26    1
@<TRIPOS>MOLECULE
Molport-052-050-200 MCULE-5841702432 PubChem-110093686
 32 36 0 0 0
SMALL
GASTEIGER

@<TRIPOS>ATOM
      1 C          11.2722   36.9502   10.1267 C.3     1  UNL1        0.0220
      2 C          11.2700   38.2925    9.3989 C.3     1  UNL1        0.0094
      3 C          12.3166   38.2923    8.2826 C.3     1  UNL1        0.0602
      4 C          13.7037   37.9818    8.8457 C.3     1  UNL1        0.0996
      5 C          12.6603   36.6660   10.6932 C.3     1  UNL1        0.0937
      6 C          14.4015   35.5749    9.2476 C.2     1  UNL1        0.2491
      7 N          13.6514   36.7456    9.6228 N.am    1  UNL1       -0.2757
      8 O          13.9985   34.4413    9.6283 O.2     1  UNL1       -0.2699
      9 C          15.6375   35.6518    8.4330 C.ar    1  UNL1        0.0568
     10 C          15.6104   35.4482    7.0439 C.ar    1  UNL1        0.0446
     11 C          16.7824   35.5543    6.2916 C.ar    1  UNL1        0.1725
     12 C          17.9974   35.8500    6.9229 C.ar    1  UNL1        0.1724
     13 C          18.0321   36.0822    8.2990 C.ar    1  UNL1        0.0402
     14 C          16.8550   35.9868    9.0486 C.ar    1  UNL1        0.0078
     15 C          19.1904   35.4015    4.8214 C.3     1  UNL1        0.2526
     16 C          17.8836   35.7405    4.0999 C.3     1  UNL1        0.2526
     17 O          19.1644   35.9110    6.1565 O.3     1  UNL1       -0.4684
     18 O          16.7621   35.3710    4.9061 O.3     1  UNL1       -0.4684
     19 C          12.3165   39.5921    7.5433 C.ar    1  UNL1        0.0617
     20 C          13.2366   41.7761    7.2917 C.ar    1  UNL1        0.1328
     21 C          12.3744   42.0269    6.2160 C.ar    1  UNL1        0.0344
     22 C          11.4758   41.0412    5.8075 C.ar    1  UNL1        0.0041
     23 C          11.4424   39.8153    6.4711 C.ar    1  UNL1        0.0149
     24 N          13.1825   40.5709    7.9219 N.ar    1  UNL1       -0.2348
     25 N          14.1788   42.7551    7.7517 N.pl3   1  UNL1       -0.2821
     26 H          13.9448   43.2284    8.5827 H       1  UNL1        0.1551
     27 C          15.4226   43.1236    7.1401 C.ar    1  UNL1        0.1526
     28 C          17.7938   43.0945    7.0822 C.ar    1  UNL1        0.1210
     29 C          17.7759   43.8634    5.9180 C.ar    1  UNL1        0.1196
     30 C          15.4084   43.8926    5.9744 C.ar    1  UNL1        0.1332
     31 N          16.6186   42.7418    7.6666 N.ar    1  UNL1       -0.2258
     32 N          16.5836   44.2457    5.3894 N.ar    1  UNL1       -0.2378
@<TRIPOS>BOND
     1     1     2    1
     2     2     3    1
     3     3     4    1
     4     3    19    1
     5     4     7    1
     6     5     7    1
     7     5     1    1
     8     6     9    1
     9    10    11   ar
    10    11    18    1
    11    12    13   ar
    12    12    17    1
    13    14     9   ar
    14    15    17    1
    15    15    16    1
    16    16    18    1
    17    20    24   ar
    18    20    25    1
    19    21    22   ar
    20    23    19   ar
    21    28    31   ar
    22    29    32   ar
    23    30    27   ar
    24     7     6   am
    25    25    27    1
    26     6     8    2
    27     9    10   ar
    28    11    12   ar
    29    13    14   ar
    30    19    24   ar
    31    20    21   ar
    32    22    23   ar
    33    27    31   ar
    34    28    29   ar
    35    30    32   ar
    36    25    26    1
@<TRIPOS>MOLECULE
Molport-052-050-200 MCULE-5841702432 PubChem-110093686
 32 36 0 0 0
SMALL
GASTEIGER

@<TRIPOS>ATOM
      1 C          16.5637   37.4519   11.0384 C.3     1  UNL1        0.0220
      2 C          15.0576   37.3233   10.8229 C.3     1  UNL1        0.0094
      3 C          14.6005   38.2594    9.7020 C.3     1  UNL1        0.0602
      4 C          14.9826   39.7054   10.0192 C.3     1  UNL1        0.0996
      5 C          16.9223   38.8980   11.3679 C.3     1  UNL1        0.0937
      6 C          17.3244   40.5409    9.5101 C.2     1  UNL1        0.2491
      7 N          16.4100   39.7797   10.3216 N.am    1  UNL1       -0.2757
      8 O          18.5460   40.2247    9.5030 O.2     1  UNL1       -0.2699
      9 C          16.8842   41.6903    8.6842 C.ar    1  UNL1        0.0568
     10 C          15.7076   41.6323    7.9199 C.ar    1  UNL1        0.0446
     11 C          15.2961   42.7375    7.1718 C.ar    1  UNL1        0.1725
     12 C          16.0654   43.9081    7.1677 C.ar    1  UNL1        0.1724
     13 C          17.2219   43.9877    7.9456 C.ar    1  UNL1        0.0402
     14 C          17.6258   42.8833    8.7030 C.ar    1  UNL1        0.0078
     15 C          14.6531   44.8217    5.3756 C.3     1  UNL1        0.2526
     16 C          13.5484   43.8897    5.8797 C.3     1  UNL1        0.2526
     17 O          15.6563   44.9876    6.3800 O.3     1  UNL1       -0.4684
     18 O          14.1170   42.6952    6.4223 O.3     1  UNL1       -0.4684
     19 C          13.1300   38.1338    9.4608 C.ar    1  UNL1        0.0617
     20 C          11.1885   38.9390    8.3375 C.ar    1  UNL1        0.1328
     21 C          10.4071   37.9582    8.9627 C.ar    1  UNL1        0.0344
     22 C          11.0047   37.0595    9.8464 C.ar    1  UNL1        0.0041
     23 C          12.3732   37.1431   10.1005 C.ar    1  UNL1        0.0149
     24 N          12.5219   38.9984    8.6040 N.ar    1  UNL1       -0.2348
     25 N          10.6238   39.8873    7.4211 N.pl3   1  UNL1       -0.2821
     26 H          10.4934   40.8007    7.7645 H       1  UNL1        0.1551
     27 C          10.2273   39.6574    6.0621 C.ar    1  UNL1        0.1526
     28 C          10.7279   39.5489    3.7460 C.ar    1  UNL1        0.1210
     29 C           9.4036   39.2031    3.4749 C.ar    1  UNL1        0.1196
     30 C           8.9027   39.3105    5.7871 C.ar    1  UNL1        0.1332
     31 N          11.1101   39.7678    5.0317 N.ar    1  UNL1       -0.2258
     32 N           8.5199   39.0914    4.5013 N.ar    1  UNL1       -0.2378
@<TRIPOS>BOND
     1     1     2    1
     2     2     3    1
     3     3     4    1
     4     3    19    1
     5     4     7    1
     6     5     7    1
     7     5     1    1
     8     6     9    1
     9    10    11   ar
    10    11    18    1
    11    12    13   ar
    12    12    17    1
    13    14     9   ar
    14    15    17    1
    15    15    16    1
    16    16    18    1
    17    20    24   ar
    18    20    25    1
    19    21    22   ar
    20    23    19   ar
    21    28    31   ar
    22    29    32   ar
    23    30    27   ar
    24     7     6   am
    25    25    27    1
    26     6     8    2
    27     9    10   ar
    28    11    12   ar
    29    13    14   ar
    30    19    24   ar
    31    20    21   ar
    32    22    23   ar
    33    27    31   ar
    34    28    29   ar
    35    30    32   ar
    36    25    26    1
@<TRIPOS>MOLECULE
Molport-052-050-200 MCULE-5841702432 PubChem-110093686
 32 36 0 0 0
SMALL
GASTEIGER

@<TRIPOS>ATOM
      1 C          16.4531   37.4583   11.1261 C.3     1  UNL1        0.0220
      2 C          14.9376   37.3980   10.9505 C.3     1  UNL1        0.0094
      3 C          14.4948   38.3479    9.8354 C.3     1  UNL1        0.0602
      4 C          14.9510   39.7765   10.1328 C.3     1  UNL1        0.0996
      5 C          16.8862   38.8882   11.4364 C.3     1  UNL1        0.0937
      6 C          17.3146   40.5004    9.5578 C.2     1  UNL1        0.2491
      7 N          16.3878   39.7866   10.3977 N.am    1  UNL1       -0.2757
      8 O          18.5198   40.1282    9.5213 O.2     1  UNL1       -0.2699
      9 C          16.9062   41.6643    8.7357 C.ar    1  UNL1        0.0568
     10 C          15.7486   41.6273    7.9418 C.ar    1  UNL1        0.0446
     11 C          15.3665   42.7457    7.1977 C.ar    1  UNL1        0.1725
     12 C          16.1469   43.9086    7.2275 C.ar    1  UNL1        0.1724
     13 C          17.2843   43.9671    8.0348 C.ar    1  UNL1        0.0402
     14 C          17.6585   42.8494    8.7880 C.ar    1  UNL1        0.0078
     15 C          14.7886   44.8581    5.4124 C.3     1  UNL1        0.2526
     16 C          13.6628   43.9310    5.8772 C.3     1  UNL1        0.2526
     17 O          15.7680   45.0017    6.4435 O.3     1  UNL1       -0.4684
     18 O          14.2062   42.7243    6.4186 O.3     1  UNL1       -0.4684
     19 C          13.0144   38.2887    9.6331 C.ar    1  UNL1        0.0617
     20 C          11.0073   39.4270    9.0368 C.ar    1  UNL1        0.1328
     21 C          10.2696   38.2524    9.2354 C.ar    1  UNL1        0.0344
     22 C          10.9223   37.0874    9.6383 C.ar    1  UNL1        0.0041
     23 C          12.3021   37.0998    9.8397 C.ar    1  UNL1        0.0149
     24 N          12.3528   39.4113    9.2411 N.ar    1  UNL1       -0.2348
     25 N          10.3851   40.6517    8.6232 N.pl3   1  UNL1       -0.2821
     26 H          10.9747   41.3208    8.2060 H       1  UNL1        0.1551
     27 C           9.0029   41.0133    8.7478 C.ar    1  UNL1        0.1526
     28 C           6.7776   41.0148    7.9261 C.ar    1  UNL1        0.1210
     29 C           6.3637   41.7375    9.0456 C.ar    1  UNL1        0.1196
     30 C           8.5848   41.7360    9.8673 C.ar    1  UNL1        0.1332
     31 N           8.0861   40.6689    7.8022 N.ar    1  UNL1       -0.2258
     32 N           7.2762   42.0823    9.9919 N.ar    1  UNL1       -0.2378
@<TRIPOS>BOND
     1     1     2    1
     2     2     3    1
     3     3     4    1
     4     3    19    1
     5     4     7    1
     6     5     7    1
     7     5     1    1
     8     6     9    1
     9    10    11   ar
    10    11    18    1
    11    12    13   ar
    12    12    17    1
    13    14     9   ar
    14    15    17    1
    15    15    16    1
    16    16    18    1
    17    20    24   ar
    18    20    25    1
    19    21    22   ar
    20    23    19   ar
    21    28    31   ar
    22    29    32   ar
    23    30    27   ar
    24     7     6   am
    25    25    27    1
    26     6     8    2
    27     9    10   ar
    28    11    12   ar
    29    13    14   ar
    30    19    24   ar
    31    20    21   ar
    32    22    23   ar
    33    27    31   ar
    34    28    29   ar
    35    30    32   ar
    36    25    26    1
@<TRIPOS>MOLECULE
Molport-052-050-200 MCULE-5841702432 PubChem-110093686
 32 36 0 0 0
SMALL
GASTEIGER

@<TRIPOS>ATOM
      1 C          10.7815   40.4903   12.2127 C.3     1  UNL1        0.0220
      2 C          11.7162   40.5923   11.0098 C.3     1  UNL1        0.0094
      3 C          11.2314   41.6832   10.0524 C.3     1  UNL1        0.0602
      4 C           9.7964   41.4064    9.6036 C.3     1  UNL1        0.0996
      5 C           9.3585   40.1995   11.7448 C.3     1  UNL1        0.0937
      6 C           7.8493   42.0944   11.0789 C.2     1  UNL1        0.2491
      7 N           8.9457   41.2115   10.7753 N.am    1  UNL1       -0.2757
      8 O           7.4523   42.1898   12.2729 O.2     1  UNL1       -0.2699
      9 C           7.1625   42.8940   10.0367 C.ar    1  UNL1        0.0568
     10 C           5.7614   42.9327    9.9511 C.ar    1  UNL1        0.0446
     11 C           5.1346   43.7161    8.9795 C.ar    1  UNL1        0.1725
     12 C           5.9028   44.4574    8.0726 C.ar    1  UNL1        0.1724
     13 C           7.2957   44.4492    8.1656 C.ar    1  UNL1        0.0402
     14 C           7.9208   43.6728    9.1469 C.ar    1  UNL1        0.0078
     15 C           3.8697   44.9950    6.8005 C.3     1  UNL1        0.2526
     16 C           3.0927   44.7688    8.0998 C.3     1  UNL1        0.2526
     17 O           5.2554   45.2020    7.0829 O.3     1  UNL1       -0.4684
     18 O           3.7404   43.7749    8.8980 O.3     1  UNL1       -0.4684
     19 C          12.1457   41.8136    8.8763 C.ar    1  UNL1        0.0617
     20 C          14.3336   41.5327    7.9742 C.ar    1  UNL1        0.1328
     21 C          13.8979   42.0246    6.7365 C.ar    1  UNL1        0.0344
     22 C          12.5677   42.4133    6.5780 C.ar    1  UNL1        0.0041
     23 C          11.6824   42.3094    7.6503 C.ar    1  UNL1        0.0149
     24 N          13.4485   41.4423    9.0041 N.ar    1  UNL1       -0.2348
     25 N          15.6904   41.1198    8.1903 N.pl3   1  UNL1       -0.2821
     26 H          16.3768   41.5824    7.6573 H       1  UNL1        0.1551
     27 C          16.1616   40.1107    9.0939 C.ar    1  UNL1        0.1526
     28 C          15.9850   37.9566   10.0715 C.ar    1  UNL1        0.1210
     29 C          17.1160   38.2147   10.8468 C.ar    1  UNL1        0.1196
     30 C          17.2937   40.3652    9.8710 C.ar    1  UNL1        0.1332
     31 N          15.5335   38.9087    9.2132 N.ar    1  UNL1       -0.2258
     32 N          17.7458   39.4133   10.7297 N.ar    1  UNL1       -0.2378
@<TRIPOS>BOND
     1     1     2    1
     2     2     3    1
     3     3     4    1
     4     3    19    1
     5     4     7    1
     6     5     7    1
     7     5     1    1
     8     6     9    1
     9    10    11   ar
    10    11    18    1
    11    12    13   ar
    12    12    17    1
    13    14     9   ar
    14    15    17    1
    15    15    16    1
    16    16    18    1
    17    20    24   ar
    18    20    25    1
    19    21    22   ar
    20    23    19   ar
    21    28    31   ar
    22    29    32   ar
    23    30    27   ar
    24     7     6   am
    25    25    27    1
    26     6     8    2
    27     9    10   ar
    28    11    12   ar
    29    13    14   ar
    30    19    24   ar
    31    20    21   ar
    32    22    23   ar
    33    27    31   ar
    34    28    29   ar
    35    30    32   ar
    36    25    26    1
@<TRIPOS>MOLECULE
Molport-052-050-200 MCULE-5841702432 PubChem-110093686
 32 36 0 0 0
SMALL
GASTEIGER

@<TRIPOS>ATOM
      1 C          10.9130   40.2906    5.0027 C.3     1  UNL1        0.0220
      2 C          11.9332   40.2386    6.1375 C.3     1  UNL1        0.0094
      3 C          11.2227   40.0696    7.4822 C.3     1  UNL1        0.0602
      4 C          10.2183   41.2004    7.7059 C.3     1  UNL1        0.0996
      5 C           9.9296   41.4336    5.2369 C.3     1  UNL1        0.0937
      6 C           7.9030   41.0647    6.6753 C.2     1  UNL1        0.2491
      7 N           9.3202   41.2920    6.5571 N.am    1  UNL1       -0.2757
      8 O           7.2548   40.6968    5.6570 O.2     1  UNL1       -0.2699
      9 C           7.1728   41.2531    7.9513 C.ar    1  UNL1        0.0568
     10 C           5.7714   41.1842    8.0078 C.ar    1  UNL1        0.0446
     11 C           5.1054   41.3357    9.2261 C.ar    1  UNL1        0.1725
     12 C           5.8331   41.5734   10.3991 C.ar    1  UNL1        0.1724
     13 C           7.2280   41.6160   10.3602 C.ar    1  UNL1        0.0402
     14 C           7.8932   41.4524    9.1407 C.ar    1  UNL1        0.0078
     15 C           3.7353   42.0044   11.6049 C.3     1  UNL1        0.2526
     16 C           3.0447   41.1317   10.5539 C.3     1  UNL1        0.2526
     17 O           5.1439   41.7625   11.6000 O.3     1  UNL1       -0.4684
     18 O           3.7119   41.2508    9.2949 O.3     1  UNL1       -0.4684
     19 C          12.2063   39.9957    8.6061 C.ar    1  UNL1        0.0617
     20 C          14.4485   40.2980    9.3548 C.ar    1  UNL1        0.1328
     21 C          14.0849   39.8860   10.6438 C.ar    1  UNL1        0.0344
     22 C          12.7629   39.5262   10.9060 C.ar    1  UNL1        0.0041
     23 C          11.8143   39.5795    9.8854 C.ar    1  UNL1        0.0149
     24 N          13.5026   40.3402    8.3772 N.ar    1  UNL1       -0.2348
     25 N          15.7937   40.6780    9.0322 N.pl3   1  UNL1       -0.2821
     26 H          16.4979   40.0323    9.2697 H       1  UNL1        0.1551
     27 C          16.2304   41.8907    8.4032 C.ar    1  UNL1        0.1526
     28 C          15.8936   43.6694    6.8703 C.ar    1  UNL1        0.1210
     29 C          17.1250   44.2163    7.2327 C.ar    1  UNL1        0.1196
     30 C          17.4621   42.4413    8.7639 C.ar    1  UNL1        0.1332
     31 N          15.4739   42.5206    7.4628 N.ar    1  UNL1       -0.2258
     32 N          17.8825   43.5904    8.1716 N.ar    1  UNL1       -0.2378
@<TRIPOS>BOND
     1     1     2    1
     2     2     3    1
     3     3     4    1
     4     3    19    1
     5     4     7    1
     6     5     7    1
     7     5     1    1
     8     6     9    1
     9    10    11   ar
    10    11    18    1
    11    12    13   ar
    12    12    17    1
    13    14     9   ar
    14    15    17    1
    15    15    16    1
    16    16    18    1
    17    20    24   ar
    18    20    25    1
    19    21    22   ar
    20    23    19   ar
    21    28    31   ar
    22    29    32   ar
    23    30    27   ar
    24     7     6   am
    25    25    27    1
    26     6     8    2
    27     9    10   ar
    28    11    12   ar
    29    13    14   ar
    30    19    24   ar
    31    20    21   ar
    32    22    23   ar
    33    27    31   ar
    34    28    29   ar
    35    30    32   ar
    36    25    26    1
@<TRIPOS>MOLECULE
Molport-052-050-200 MCULE-5841702432 PubChem-110093686
 32 36 0 0 0
SMALL
GASTEIGER

@<TRIPOS>ATOM
      1 C          13.3105   33.5455    9.3609 C.3     1  UNL1        0.0220
      2 C          13.2879   34.9517    9.9554 C.3     1  UNL1        0.0094
      3 C          13.9940   35.9347    9.0191 C.3     1  UNL1        0.0602
      4 C          15.4290   35.4826    8.7473 C.3     1  UNL1        0.0996
      5 C          14.7506   33.1076    9.1110 C.3     1  UNL1        0.0937
      6 C          15.8944   33.7373    6.9645 C.2     1  UNL1        0.2491
      7 N          15.4259   34.0992    8.2773 N.am    1  UNL1       -0.2757
      8 O          15.4646   32.6772    6.4316 O.2     1  UNL1       -0.2699
      9 C          16.8710   34.5628    6.2149 C.ar    1  UNL1        0.0568
     10 C          16.7015   34.8328    4.8474 C.ar    1  UNL1        0.0446
     11 C          17.6184   35.6373    4.1673 C.ar    1  UNL1        0.1725
     12 C          18.7239   36.1681    4.8444 C.ar    1  UNL1        0.1724
     13 C          18.8879   35.9300    6.2101 C.ar    1  UNL1        0.0402
     14 C          17.9619   35.1333    6.8915 C.ar    1  UNL1        0.0078
     15 C          19.6504   36.9482    2.7056 C.3     1  UNL1        0.2526
     16 C          18.2140   36.9541    2.1767 C.3     1  UNL1        0.2526
     17 O          19.6506   36.9368    4.1349 O.3     1  UNL1       -0.4684
     18 O          17.4482   35.9262    2.8104 O.3     1  UNL1       -0.4684
     19 C          13.9650   37.3231    9.5737 C.ar    1  UNL1        0.0617
     20 C          13.7690   39.6622    9.1615 C.ar    1  UNL1        0.1328
     21 C          13.8986   39.9253   10.5317 C.ar    1  UNL1        0.0344
     22 C          14.0633   38.8667   11.4250 C.ar    1  UNL1        0.0041
     23 C          14.0974   37.5565   10.9490 C.ar    1  UNL1        0.0149
     24 N          13.8064   38.3740    8.7240 N.ar    1  UNL1       -0.2348
     25 N          13.5980   40.7139    8.2009 N.pl3   1  UNL1       -0.2821
     26 H          12.7348   40.7359    7.7279 H       1  UNL1        0.1551
     27 C          14.5401   41.7369    7.8505 C.ar    1  UNL1        0.1526
     28 C          16.7358   42.6337    7.8851 C.ar    1  UNL1        0.1210
     29 C          16.2992   43.7340    7.1465 C.ar    1  UNL1        0.1196
     30 C          14.1067   42.8393    7.1107 C.ar    1  UNL1        0.1332
     31 N          15.8481   41.6607    8.2201 N.ar    1  UNL1       -0.2258
     32 N          14.9942   43.8129    6.7753 N.ar    1  UNL1       -0.2378
@<TRIPOS>BOND
     1     1     2    1
     2     2     3    1
     3     3     4    1
     4     3    19    1
     5     4     7    1
     6     5     7    1
     7     5     1    1
     8     6     9    1
     9    10    11   ar
    10    11    18    1
    11    12    13   ar
    12    12    17    1
    13    14     9   ar
    14    15    17    1
    15    15    16    1
    16    16    18    1
    17    20    24   ar
    18    20    25    1
    19    21    22   ar
    20    23    19   ar
    21    28    31   ar
    22    29    32   ar
    23    30    27   ar
    24     7     6   am
    25    25    27    1
    26     6     8    2
    27     9    10   ar
    28    11    12   ar
    29    13    14   ar
    30    19    24   ar
    31    20    21   ar
    32    22    23   ar
    33    27    31   ar
    34    28    29   ar
    35    30    32   ar
    36    25    26    1
@<TRIPOS>MOLECULE
Molport-052-050-200 MCULE-5841702432 PubChem-110093686
 32 36 0 0 0
SMALL
GASTEIGER

@<TRIPOS>ATOM
      1 C          13.8111   33.9425    9.1736 C.3     1  UNL1        0.0220
      2 C          13.8913   35.4081    9.5941 C.3     1  UNL1        0.0094
      3 C          14.4580   36.2567    8.4538 C.3     1  UNL1        0.0602
      4 C          15.8316   35.7375    8.0280 C.3     1  UNL1        0.0996
      5 C          15.1932   33.4397    8.7669 C.3     1  UNL1        0.0937
      6 C          16.0076   33.7856    6.4154 C.2     1  UNL1        0.2491
      7 N          15.7450   34.3096    7.7309 N.am    1  UNL1       -0.2757
      8 O          15.4926   32.6831    6.0814 O.2     1  UNL1       -0.2699
      9 C          16.8683   34.4922    5.4371 C.ar    1  UNL1        0.0568
     10 C          16.7324   34.2774    4.0561 C.ar    1  UNL1        0.0446
     11 C          17.5342   34.9757    3.1505 C.ar    1  UNL1        0.1725
     12 C          18.4917   35.8854    3.6172 C.ar    1  UNL1        0.1724
     13 C          18.6167   36.1283    4.9863 C.ar    1  UNL1        0.0402
     14 C          17.8046   35.4361    5.8906 C.ar    1  UNL1        0.0078
     15 C          19.3895   36.0984    1.3392 C.3     1  UNL1        0.2526
     16 C          18.0058   35.6753    0.8398 C.3     1  UNL1        0.2526
     17 O          19.3108   36.5428    2.6954 O.3     1  UNL1       -0.4684
     18 O          17.3938   34.7818    1.7734 O.3     1  UNL1       -0.4684
     19 C          14.5258   37.7002    8.8382 C.ar    1  UNL1        0.0617
     20 C          13.4613   39.8319    8.8892 C.ar    1  UNL1        0.1328
     21 C          14.5797   40.3869    9.5251 C.ar    1  UNL1        0.0344
     22 C          15.6794   39.5796    9.8162 C.ar    1  UNL1        0.0041
     23 C          15.6578   38.2283    9.4731 C.ar    1  UNL1        0.0149
     24 N          13.4670   38.5100    8.5649 N.ar    1  UNL1       -0.2348
     25 N          12.3051   40.6177    8.5672 N.pl3   1  UNL1       -0.2821
     26 H          12.2850   41.0146    7.6664 H       1  UNL1        0.1551
     27 C          11.1752   40.8916    9.4069 C.ar    1  UNL1        0.1526
     28 C           8.9036   41.5140    9.6889 C.ar    1  UNL1        0.1210
     29 C           9.0441   41.4038   11.0727 C.ar    1  UNL1        0.1196
     30 C          11.3119   40.7816   10.7924 C.ar    1  UNL1        0.1332
     31 N           9.9705   41.2557    8.8876 N.ar    1  UNL1       -0.2258
     32 N          10.2452   41.0399   11.5944 N.ar    1  UNL1       -0.2378
@<TRIPOS>BOND
     1     1     2    1
     2     2     3    1
     3     3     4    1
     4     3    19    1
     5     4     7    1
     6     5     7    1
     7     5     1    1
     8     6     9    1
     9    10    11   ar
    10    11    18    1
    11    12    13   ar
    12    12    17    1
    13    14     9   ar
    14    15    17    1
    15    15    16    1
    16    16    18    1
    17    20    24   ar
    18    20    25    1
    19    21    22   ar
    20    23    19   ar
    21    28    31   ar
    22    29    32   ar
    23    30    27   ar
    24     7     6   am
    25    25    27    1
    26     6     8    2
    27     9    10   ar
    28    11    12   ar
    29    13    14   ar
    30    19    24   ar
    31    20    21   ar
    32    22    23   ar
    33    27    31   ar
    34    28    29   ar
    35    30    32   ar
    36    25    26    1
@<TRIPOS>MOLECULE
Molport-052-050-200 MCULE-5841702432 PubChem-110093686
 32 36 0 0 0
SMALL
GASTEIGER

@<TRIPOS>ATOM
      1 C           9.6275   43.6089   10.7441 C.3     1  UNL1        0.0220
      2 C          10.7996   42.6895   11.0793 C.3     1  UNL1        0.0094
      3 C          11.2028   41.8742    9.8487 C.3     1  UNL1        0.0602
      4 C          10.0138   41.0693    9.3233 C.3     1  UNL1        0.0996
      5 C           8.4473   42.7859   10.2359 C.3     1  UNL1        0.0937
      6 C           8.3060   42.1720    7.8038 C.2     1  UNL1        0.2491
      7 N           8.8756   41.9601    9.1094 N.am    1  UNL1       -0.2757
      8 O           7.6762   43.2416    7.5767 O.2     1  UNL1       -0.2699
      9 C           8.4267   41.1745    6.7140 C.ar    1  UNL1        0.0568
     10 C           9.6298   41.0036    6.0105 C.ar    1  UNL1        0.0446
     11 C           9.7300   40.0375    5.0069 C.ar    1  UNL1        0.1725
     12 C           8.6227   39.2420    4.6853 C.ar    1  UNL1        0.1724
     13 C           7.4299   39.3832    5.3968 C.ar    1  UNL1        0.0402
     14 C           7.3357   40.3437    6.4092 C.ar    1  UNL1        0.0078
     15 C           9.8345   38.3540    2.7400 C.3     1  UNL1        0.2526
     16 C          11.1253   38.6974    3.4875 C.3     1  UNL1        0.2526
     17 O           8.7333   38.3097    3.6501 O.3     1  UNL1       -0.4684
     18 O          10.9287   39.8479    4.3134 O.3     1  UNL1       -0.4684
     19 C          12.3637   40.9812   10.1504 C.ar    1  UNL1        0.0617
     20 C          14.6154   40.3611    9.6760 C.ar    1  UNL1        0.1328
     21 C          14.5586   39.3632   10.6581 C.ar    1  UNL1        0.0344
     22 C          13.3848   39.1805   11.3892 C.ar    1  UNL1        0.0041
     23 C          12.2783   39.9910   11.1382 C.ar    1  UNL1        0.0149
     24 N          13.5205   41.1376    9.4512 N.ar    1  UNL1       -0.2348
     25 N          15.7974   40.5902    8.8961 N.pl3   1  UNL1       -0.2821
     26 H          16.3820   39.8113    8.7517 H       1  UNL1        0.1551
     27 C          16.2253   41.8237    8.3025 C.ar    1  UNL1        0.1526
     28 C          15.8947   43.6225    6.7918 C.ar    1  UNL1        0.1210
     29 C          17.1016   44.1899    7.2018 C.ar    1  UNL1        0.1196
     30 C          17.4324   42.3950    8.7109 C.ar    1  UNL1        0.1332
     31 N          15.4835   42.4538    7.3505 N.ar    1  UNL1       -0.2258
     32 N          17.8442   43.5639    8.1525 N.ar    1  UNL1       -0.2378
@<TRIPOS>BOND
     1     1     2    1
     2     2     3    1
     3     3     4    1
     4     3    19    1
     5     4     7    1
     6     5     7    1
     7     5     1    1
     8     6     9    1
     9    10    11   ar
    10    11    18    1
    11    12    13   ar
    12    12    17    1
    13    14     9   ar
    14    15    17    1
    15    15    16    1
    16    16    18    1
    17    20    24   ar
    18    20    25    1
    19    21    22   ar
    20    23    19   ar
    21    28    31   ar
    22    29    32   ar
    23    30    27   ar
    24     7     6   am
    25    25    27    1
    26     6     8    2
    27     9    10   ar
    28    11    12   ar
    29    13    14   ar
    30    19    24   ar
    31    20    21   ar
    32    22    23   ar
    33    27    31   ar
    34    28    29   ar
    35    30    32   ar
    36    25    26    1
