@<TRIPOS>MOLECULE
MolPort-016-906-836 ChemDiv-V029-4306 MCULE-6046758830 PubChem-45970893 ZINC000037385251 ZINC37385251
 33 36 0 0 0
SMALL
GASTEIGER

@<TRIPOS>ATOM
      1 C          13.4153   40.1874    8.8826 C.ar    1  UNL1        0.0848
      2 C          14.8011   40.0269    9.0375 C.ar    1  UNL1        0.0205
      3 C          15.3522   38.7550    9.2122 C.ar    1  UNL1        0.0162
      4 C          14.5322   37.6233    9.2118 C.ar    1  UNL1        0.0506
      5 C          13.1499   37.7772    9.0367 C.ar    1  UNL1        0.0162
      6 C          12.5977   39.0488    8.8684 C.ar    1  UNL1        0.0205
      7 C          11.3722   43.0283    8.5678 C.ar    1  UNL1        0.3385
      8 C          13.3970   42.6240    8.1983 C.ar    1  UNL1        0.2030
      9 N          11.5582   41.7449    8.9228 N.ar    1  UNL1       -0.1076
     10 N          12.8308   41.4855    8.6741 N.ar    1  UNL1       -0.2053
     11 N          12.4956   43.6220    8.1083 N.ar    1  UNL1       -0.1707
     12 C          14.8226   42.8396    7.9024 C.ar    1  UNL1        0.1812
     13 C          15.8290   43.0153    8.8299 C.ar    1  UNL1        0.0439
     14 C          16.9747   43.2074    8.0771 C.ar    1  UNL1        0.0439
     15 C          16.5888   43.1426    6.7492 C.ar    1  UNL1        0.1798
     16 O          15.2961   42.9305    6.6865 O.2     1  UNL1       -0.4473
     17 O          10.1287   43.6569    8.6358 O.3     1  UNL1       -0.4430
     18 C           8.9332   42.9398    8.9066 C.3     1  UNL1        0.2406
     19 C           8.5464   42.1159    7.6926 C.3     1  UNL1        0.1894
     20 O           7.6354   41.1326    8.0812 O.3     1  UNL1       -0.3498
     21 C           6.4454   41.2932   10.1396 C.3     1  UNL1        0.0346
     22 C           7.7820   41.0295    9.4660 C.3     1  UNL1        0.1424
     23 C          16.2270   35.7842    8.6779 C.2     1  UNL1        0.2517
     24 O          16.8965   36.5185    7.9017 O.2     1  UNL1       -0.2697
     25 N          15.1276   36.3357    9.4172 N.am    1  UNL1       -0.2803
     26 H          14.7465   35.7771   10.1327 H       1  UNL1        0.1552
     27 C          16.6022   34.3595    8.8345 C.ar    1  UNL1        0.0811
     28 C          17.8114   33.9601    9.4431 C.ar    1  UNL1        0.1445
     29 C          18.1026   32.6000    9.5955 C.ar    1  UNL1        0.0298
     30 C          17.2116   31.6283    9.1353 C.ar    1  UNL1        0.0023
     31 C          16.0216   32.0138    8.5200 C.ar    1  UNL1        0.0003
     32 C          15.7200   33.3696    8.3720 C.ar    1  UNL1        0.0068
     33 F          18.7169   34.8654    9.8894 F       1  UNL1       -0.2040
@<TRIPOS>BOND
     1    21    22    1
     2    22    20    1
     3    19    20    1
     4    19    18    1
     5    18    17    1
     6     7    17    1
     7     7    11   ar
     8     8    12    1
     9    12    16   ar
    10    13    14   ar
    11    15    16   ar
    12     2     3   ar
    13     4    25    1
    14     4     5   ar
    15    23    27    1
    16    28    33    1
    17    28    29   ar
    18    30    31   ar
    19    32    27   ar
    20     6     1   ar
    21    10     9   ar
    22    10     8   ar
    23    10     1    1
    24    25    23   am
    25     7     9   ar
    26     8    11   ar
    27    12    13   ar
    28    14    15   ar
    29     1     2   ar
    30     3     4   ar
    31    23    24    2
    32    27    28   ar
    33    29    30   ar
    34    31    32   ar
    35     5     6   ar
    36    25    26    1
@<TRIPOS>MOLECULE
MolPort-016-906-836 ChemDiv-V029-4306 MCULE-6046758830 PubChem-45970893 ZINC000037385251 ZINC37385251
 33 36 0 0 0
SMALL
GASTEIGER

@<TRIPOS>ATOM
      1 C          12.3891   39.6295    8.5391 C.ar    1  UNL1        0.0848
      2 C          12.3056   40.3924    7.3639 C.ar    1  UNL1        0.0205
      3 C          13.3525   41.2403    6.9933 C.ar    1  UNL1        0.0162
      4 C          14.5068   41.3221    7.7768 C.ar    1  UNL1        0.0506
      5 C          14.6031   40.5464    8.9405 C.ar    1  UNL1        0.0162
      6 C          13.5544   39.7035    9.3148 C.ar    1  UNL1        0.0205
      7 C          10.3204   37.1405    9.9062 C.ar    1  UNL1        0.3385
      8 C          10.0687   38.6234    8.4442 C.ar    1  UNL1        0.2030
      9 N          11.4877   37.8060    9.8576 N.ar    1  UNL1       -0.1076
     10 N          11.3342   38.7300    8.9241 N.ar    1  UNL1       -0.2053
     11 N           9.3994   37.6163    9.0396 N.ar    1  UNL1       -0.1707
     12 C           9.4156   39.5232    7.4798 C.ar    1  UNL1        0.1812
     13 C           8.8245   40.7360    7.7692 C.ar    1  UNL1        0.0439
     14 C           8.3310   41.1875    6.5572 C.ar    1  UNL1        0.0439
     15 C           8.6475   40.2206    5.6184 C.ar    1  UNL1        0.1798
     16 O           9.2867   39.2397    6.2094 O.2     1  UNL1       -0.4473
     17 O          10.1111   36.0455   10.7448 O.3     1  UNL1       -0.4430
     18 C          11.1812   35.2413   11.2190 C.3     1  UNL1        0.2406
     19 C          12.4802   36.0210   11.1378 C.3     1  UNL1        0.1894
     20 O          13.4832   35.1847   10.6457 O.3     1  UNL1       -0.3498
     21 C          15.3796   35.7643    9.3240 C.3     1  UNL1        0.0346
     22 C          13.8634   35.7522    9.4279 C.3     1  UNL1        0.1424
     23 C          16.9269   42.1483    7.7840 C.2     1  UNL1        0.2517
     24 O          17.3573   41.1228    8.3781 O.2     1  UNL1       -0.2697
     25 N          15.5517   42.2196    7.3802 N.am    1  UNL1       -0.2803
     26 H          15.3024   42.9541    6.7738 H       1  UNL1        0.1552
     27 C          17.8585   43.2617    7.4884 C.ar    1  UNL1        0.0811
     28 C          17.9752   43.8263    6.2001 C.ar    1  UNL1        0.1445
     29 C          18.8471   44.8987    5.9820 C.ar    1  UNL1        0.0298
     30 C          19.6189   45.4089    7.0279 C.ar    1  UNL1        0.0023
     31 C          19.5207   44.8480    8.3003 C.ar    1  UNL1        0.0003
     32 C          18.6461   43.7829    8.5277 C.ar    1  UNL1        0.0068
     33 F          17.2610   43.3542    5.1484 F       1  UNL1       -0.2040
@<TRIPOS>BOND
     1    21    22    1
     2    22    20    1
     3    19    20    1
     4    19    18    1
     5    18    17    1
     6     7    17    1
     7     7    11   ar
     8     8    12    1
     9    12    16   ar
    10    13    14   ar
    11    15    16   ar
    12     2     3   ar
    13     4    25    1
    14     4     5   ar
    15    23    27    1
    16    28    33    1
    17    28    29   ar
    18    30    31   ar
    19    32    27   ar
    20     6     1   ar
    21    10     9   ar
    22    10     8   ar
    23    10     1    1
    24    25    23   am
    25     7     9   ar
    26     8    11   ar
    27    12    13   ar
    28    14    15   ar
    29     1     2   ar
    30     3     4   ar
    31    23    24    2
    32    27    28   ar
    33    29    30   ar
    34    31    32   ar
    35     5     6   ar
    36    25    26    1
@<TRIPOS>MOLECULE
MolPort-016-906-836 ChemDiv-V029-4306 MCULE-6046758830 PubChem-45970893 ZINC000037385251 ZINC37385251
 33 36 0 0 0
SMALL
GASTEIGER

@<TRIPOS>ATOM
      1 C          12.4330   40.8702    9.1061 C.ar    1  UNL1        0.0848
      2 C          11.6196   40.7809    7.9657 C.ar    1  UNL1        0.0205
      3 C          10.2278   40.8136    8.0834 C.ar    1  UNL1        0.0162
      4 C           9.6278   40.9589    9.3372 C.ar    1  UNL1        0.0506
      5 C          10.4367   41.0691   10.4768 C.ar    1  UNL1        0.0162
      6 C          11.8278   41.0302   10.3604 C.ar    1  UNL1        0.0205
      7 C          15.8374   41.4705    8.4792 C.ar    1  UNL1        0.3385
      8 C          14.7635   39.9346    9.4211 C.ar    1  UNL1        0.2030
      9 N          14.5465   41.8425    8.4250 N.ar    1  UNL1       -0.1076
     10 N          13.8682   40.8661    9.0041 N.ar    1  UNL1       -0.2053
     11 N          16.0241   40.2823    9.0947 N.ar    1  UNL1       -0.1707
     12 C          14.4744   38.7346   10.2228 C.ar    1  UNL1        0.1812
     13 C          14.5244   38.6434   11.5987 C.ar    1  UNL1        0.0439
     14 C          14.2044   37.3258   11.8780 C.ar    1  UNL1        0.0439
     15 C          13.9891   36.7060   10.6590 C.ar    1  UNL1        0.1798
     16 O          14.1682   37.5775    9.6955 O.2     1  UNL1       -0.4473
     17 O          16.8647   42.2281    7.9162 O.3     1  UNL1       -0.4430
     18 C          16.7819   43.6405    7.7931 C.3     1  UNL1        0.2406
     19 C          17.4407   44.0793    6.4987 C.3     1  UNL1        0.1894
     20 O          16.6809   45.0991    5.9240 O.3     1  UNL1       -0.3498
     21 C          14.7812   43.9990    4.9967 C.3     1  UNL1        0.0346
     22 C          15.3535   44.7536    6.1853 C.3     1  UNL1        0.1424
     23 C           7.3664   42.1177    9.6247 C.2     1  UNL1        0.2517
     24 O           7.8589   43.2744    9.5274 O.2     1  UNL1       -0.2697
     25 N           8.1971   40.9648    9.4246 N.am    1  UNL1       -0.2803
     26 H           7.7415   40.0963    9.3392 H       1  UNL1        0.1552
     27 C           5.9231   41.9650    9.9225 C.ar    1  UNL1        0.0811
     28 C           5.4568   41.2833   11.0670 C.ar    1  UNL1        0.1445
     29 C           4.0831   41.1959   11.3186 C.ar    1  UNL1        0.0298
     30 C           3.1631   41.7658   10.4361 C.ar    1  UNL1        0.0023
     31 C           3.6143   42.4285    9.2958 C.ar    1  UNL1        0.0003
     32 C           4.9843   42.5274    9.0424 C.ar    1  UNL1        0.0068
     33 F           6.3095   40.6976   11.9438 F       1  UNL1       -0.2040
@<TRIPOS>BOND
     1    21    22    1
     2    22    20    1
     3    19    20    1
     4    19    18    1
     5    18    17    1
     6     7    17    1
     7     7    11   ar
     8     8    12    1
     9    12    16   ar
    10    13    14   ar
    11    15    16   ar
    12     2     3   ar
    13     4    25    1
    14     4     5   ar
    15    23    27    1
    16    28    33    1
    17    28    29   ar
    18    30    31   ar
    19    32    27   ar
    20     6     1   ar
    21    10     9   ar
    22    10     8   ar
    23    10     1    1
    24    25    23   am
    25     7     9   ar
    26     8    11   ar
    27    12    13   ar
    28    14    15   ar
    29     1     2   ar
    30     3     4   ar
    31    23    24    2
    32    27    28   ar
    33    29    30   ar
    34    31    32   ar
    35     5     6   ar
    36    25    26    1
@<TRIPOS>MOLECULE
MolPort-016-906-836 ChemDiv-V029-4306 MCULE-6046758830 PubChem-45970893 ZINC000037385251 ZINC37385251
 33 36 0 0 0
SMALL
GASTEIGER

@<TRIPOS>ATOM
      1 C          12.9208   41.2557    8.6438 C.ar    1  UNL1        0.0848
      2 C          12.2527   41.5191    7.4379 C.ar    1  UNL1        0.0205
      3 C          10.8636   41.6671    7.4147 C.ar    1  UNL1        0.0162
      4 C          10.1235   41.5775    8.5968 C.ar    1  UNL1        0.0506
      5 C          10.7889   41.3350    9.8066 C.ar    1  UNL1        0.0162
      6 C          12.1767   41.1808    9.8295 C.ar    1  UNL1        0.0205
      7 C          16.2801   40.4346    9.2640 C.ar    1  UNL1        0.3385
      8 C          15.3103   41.8546    8.0628 C.ar    1  UNL1        0.2030
      9 N          14.9641   40.2211    9.4380 N.ar    1  UNL1       -0.1076
     10 N          14.3530   41.1272    8.6935 N.ar    1  UNL1       -0.2053
     11 N          16.5472   41.4475    8.4105 N.ar    1  UNL1       -0.1707
     12 C          15.0955   42.8920    7.0411 C.ar    1  UNL1        0.1812
     13 C          15.6471   44.1567    7.0366 C.ar    1  UNL1        0.0439
     14 C          15.1331   44.7632    5.9033 C.ar    1  UNL1        0.0439
     15 C          14.3024   43.8335    5.3016 C.ar    1  UNL1        0.1798
     16 O          14.2999   42.7331    6.0152 O.2     1  UNL1       -0.4473
     17 O          17.2584   39.7010    9.9356 O.3     1  UNL1       -0.4430
     18 C          17.0415   39.1603   11.2307 C.3     1  UNL1        0.2406
     19 C          16.8623   37.6569   11.1325 C.3     1  UNL1        0.1894
     20 O          15.9868   37.2363   12.1346 O.3     1  UNL1       -0.3498
     21 C          13.8848   36.7946   11.1023 C.3     1  UNL1        0.0346
     22 C          14.7589   37.8166   11.8103 C.3     1  UNL1        0.1424
     23 C           7.9237   42.7886    9.0800 C.2     1  UNL1        0.2517
     24 O           8.4986   43.8334    9.4895 O.2     1  UNL1       -0.2697
     25 N           8.6977   41.7107    8.5338 N.am    1  UNL1       -0.2803
     26 H           8.2030   40.9954    8.0725 H       1  UNL1        0.1552
     27 C           6.4465   42.6980    9.1471 C.ar    1  UNL1        0.0811
     28 C           5.6064   43.7593    8.7472 C.ar    1  UNL1        0.1445
     29 C           4.2161   43.6098    8.7999 C.ar    1  UNL1        0.0298
     30 C           3.6480   42.4207    9.2614 C.ar    1  UNL1        0.0023
     31 C           4.4702   41.3725    9.6720 C.ar    1  UNL1        0.0003
     32 C           5.8589   41.5111    9.6141 C.ar    1  UNL1        0.0068
     33 F           6.1099   44.9398    8.3092 F       1  UNL1       -0.2040
@<TRIPOS>BOND
     1    21    22    1
     2    22    20    1
     3    19    20    1
     4    19    18    1
     5    18    17    1
     6     7    17    1
     7     7    11   ar
     8     8    12    1
     9    12    16   ar
    10    13    14   ar
    11    15    16   ar
    12     2     3   ar
    13     4    25    1
    14     4     5   ar
    15    23    27    1
    16    28    33    1
    17    28    29   ar
    18    30    31   ar
    19    32    27   ar
    20     6     1   ar
    21    10     9   ar
    22    10     8   ar
    23    10     1    1
    24    25    23   am
    25     7     9   ar
    26     8    11   ar
    27    12    13   ar
    28    14    15   ar
    29     1     2   ar
    30     3     4   ar
    31    23    24    2
    32    27    28   ar
    33    29    30   ar
    34    31    32   ar
    35     5     6   ar
    36    25    26    1
@<TRIPOS>MOLECULE
MolPort-016-906-836 ChemDiv-V029-4306 MCULE-6046758830 PubChem-45970893 ZINC000037385251 ZINC37385251
 33 36 0 0 0
SMALL
GASTEIGER

@<TRIPOS>ATOM
      1 C           6.1672   40.8992    9.2084 C.ar    1  UNL1        0.0848
      2 C           5.3793   40.5965    8.0869 C.ar    1  UNL1        0.0205
      3 C           5.9762   40.2050    6.8860 C.ar    1  UNL1        0.0162
      4 C           7.3656   40.0875    6.7927 C.ar    1  UNL1        0.0506
      5 C           8.1553   40.3689    7.9163 C.ar    1  UNL1        0.0162
      6 C           7.5596   40.7663    9.1151 C.ar    1  UNL1        0.0205
      7 C           4.0875   41.6762   11.9314 C.ar    1  UNL1        0.3385
      8 C           6.1537   41.7736   11.5834 C.ar    1  UNL1        0.2030
      9 N           4.2702   41.2005   10.6872 N.ar    1  UNL1       -0.1076
     10 N           5.5710   41.2776   10.4620 N.ar    1  UNL1       -0.2053
     11 N           5.2384   42.0475   12.5341 N.ar    1  UNL1       -0.1707
     12 C           7.5969   41.9174   11.8341 C.ar    1  UNL1        0.1812
     13 C           8.3630   41.1207   12.6600 C.ar    1  UNL1        0.0439
     14 C           9.6360   41.6604   12.5913 C.ar    1  UNL1        0.0439
     15 C           9.5572   42.7476   11.7379 C.ar    1  UNL1        0.1798
     16 O           8.3226   42.8731   11.3136 O.2     1  UNL1       -0.4473
     17 O           2.8255   41.8042   12.5120 O.3     1  UNL1       -0.4430
     18 C           1.7626   42.4900   11.8664 C.3     1  UNL1        0.2406
     19 C           0.5783   42.5978   12.8086 C.3     1  UNL1        0.1894
     20 O           0.9149   42.0157   14.0315 O.3     1  UNL1       -0.3498
     21 C           0.3843   44.2766   14.5660 C.3     1  UNL1        0.0346
     22 C           0.3062   42.8211   14.9962 C.3     1  UNL1        0.1424
     23 C           8.8606   38.6210    5.3250 C.2     1  UNL1        0.2517
     24 O           9.0567   37.7727    6.2370 O.2     1  UNL1       -0.2697
     25 N           7.9466   39.7064    5.5390 N.am    1  UNL1       -0.2803
     26 H           7.6949   40.2395    4.7505 H       1  UNL1        0.1552
     27 C           9.5628   38.4705    4.0292 C.ar    1  UNL1        0.0811
     28 C           9.8906   37.2077    3.4907 C.ar    1  UNL1        0.1445
     29 C          10.5253   37.1205    2.2467 C.ar    1  UNL1        0.0298
     30 C          10.8538   38.2765    1.5358 C.ar    1  UNL1        0.0023
     31 C          10.5468   39.5283    2.0668 C.ar    1  UNL1        0.0003
     32 C           9.9054   39.6232    3.3039 C.ar    1  UNL1        0.0068
     33 F           9.6091   36.0572    4.1509 F       1  UNL1       -0.2040
@<TRIPOS>BOND
     1    21    22    1
     2    22    20    1
     3    19    20    1
     4    19    18    1
     5    18    17    1
     6     7    17    1
     7     7    11   ar
     8     8    12    1
     9    12    16   ar
    10    13    14   ar
    11    15    16   ar
    12     2     3   ar
    13     4    25    1
    14     4     5   ar
    15    23    27    1
    16    28    33    1
    17    28    29   ar
    18    30    31   ar
    19    32    27   ar
    20     6     1   ar
    21    10     9   ar
    22    10     8   ar
    23    10     1    1
    24    25    23   am
    25     7     9   ar
    26     8    11   ar
    27    12    13   ar
    28    14    15   ar
    29     1     2   ar
    30     3     4   ar
    31    23    24    2
    32    27    28   ar
    33    29    30   ar
    34    31    32   ar
    35     5     6   ar
    36    25    26    1
@<TRIPOS>MOLECULE
MolPort-016-906-836 ChemDiv-V029-4306 MCULE-6046758830 PubChem-45970893 ZINC000037385251 ZINC37385251
 33 36 0 0 0
SMALL
GASTEIGER

@<TRIPOS>ATOM
      1 C          11.3468   39.9110   10.1349 C.ar    1  UNL1        0.0848
      2 C          11.6848   40.8927    9.1904 C.ar    1  UNL1        0.0205
      3 C          11.5418   40.6406    7.8237 C.ar    1  UNL1        0.0162
      4 C          11.0380   39.4149    7.3800 C.ar    1  UNL1        0.0506
      5 C          10.6796   38.4391    8.3205 C.ar    1  UNL1        0.0162
      6 C          10.8283   38.6881    9.6865 C.ar    1  UNL1        0.0205
      7 C          10.9939   40.8656   13.4976 C.ar    1  UNL1        0.3385
      8 C          12.4764   39.8677   12.3993 C.ar    1  UNL1        0.2030
      9 N          10.5188   40.7747   12.2431 N.ar    1  UNL1       -0.1076
     10 N          11.4607   40.1603   11.5473 N.ar    1  UNL1       -0.2053
     11 N          12.2170   40.3109   13.6455 N.ar    1  UNL1       -0.1707
     12 C          13.6808   39.0791   12.0932 C.ar    1  UNL1        0.1812
     13 C          13.7069   37.7844   11.6170 C.ar    1  UNL1        0.0439
     14 C          15.0516   37.4717   11.5149 C.ar    1  UNL1        0.0439
     15 C          15.7491   38.5893   11.9402 C.ar    1  UNL1        0.1798
     16 O          14.8959   39.5238   12.2849 O.2     1  UNL1       -0.4473
     17 O          10.2983   41.5069   14.5228 O.3     1  UNL1       -0.4430
     18 C           8.9126   41.8023   14.4261 C.3     1  UNL1        0.2406
     19 C           8.2889   40.9682   13.3228 C.3     1  UNL1        0.1894
     20 O           7.4407   41.7767   12.5649 O.3     1  UNL1       -0.3498
     21 C           8.3138   42.9261   10.6687 C.3     1  UNL1        0.0346
     22 C           8.2243   42.8682   12.1847 C.3     1  UNL1        0.1424
     23 C           9.8046   38.5914    5.2968 C.2     1  UNL1        0.2517
     24 O           8.7167   38.4238    5.9118 O.2     1  UNL1       -0.2697
     25 N          10.9264   39.1806    5.9703 N.am    1  UNL1       -0.2803
     26 H          11.6912   39.4491    5.4117 H       1  UNL1        0.1552
     27 C           9.9023   38.1971    3.8720 C.ar    1  UNL1        0.0811
     28 C          10.0761   39.1417    2.8378 C.ar    1  UNL1        0.1445
     29 C          10.1953   38.7132    1.5111 C.ar    1  UNL1        0.0298
     30 C          10.1281   37.3545    1.1961 C.ar    1  UNL1        0.0023
     31 C           9.9421   36.4157    2.2097 C.ar    1  UNL1        0.0003
     32 C           9.8309   36.8351    3.5373 C.ar    1  UNL1        0.0068
     33 F          10.1291   40.4729    3.0907 F       1  UNL1       -0.2040
@<TRIPOS>BOND
     1    21    22    1
     2    22    20    1
     3    19    20    1
     4    19    18    1
     5    18    17    1
     6     7    17    1
     7     7    11   ar
     8     8    12    1
     9    12    16   ar
    10    13    14   ar
    11    15    16   ar
    12     2     3   ar
    13     4    25    1
    14     4     5   ar
    15    23    27    1
    16    28    33    1
    17    28    29   ar
    18    30    31   ar
    19    32    27   ar
    20     6     1   ar
    21    10     9   ar
    22    10     8   ar
    23    10     1    1
    24    25    23   am
    25     7     9   ar
    26     8    11   ar
    27    12    13   ar
    28    14    15   ar
    29     1     2   ar
    30     3     4   ar
    31    23    24    2
    32    27    28   ar
    33    29    30   ar
    34    31    32   ar
    35     5     6   ar
    36    25    26    1
@<TRIPOS>MOLECULE
MolPort-016-906-836 ChemDiv-V029-4306 MCULE-6046758830 PubChem-45970893 ZINC000037385251 ZINC37385251
 33 36 0 0 0
SMALL
GASTEIGER

@<TRIPOS>ATOM
      1 C          12.4673   40.6276    9.2939 C.ar    1  UNL1        0.0848
      2 C          11.8153   41.1475   10.4229 C.ar    1  UNL1        0.0205
      3 C          10.4218   41.2427   10.4556 C.ar    1  UNL1        0.0162
      4 C           9.6576   40.7996    9.3727 C.ar    1  UNL1        0.0506
      5 C          10.3035   40.2606    8.2514 C.ar    1  UNL1        0.0162
      6 C          11.6967   40.1711    8.2156 C.ar    1  UNL1        0.0205
      7 C          15.8592   39.8112    9.7089 C.ar    1  UNL1        0.3385
      8 C          14.8136   41.2039    8.5398 C.ar    1  UNL1        0.2030
      9 N          14.5574   39.6064    9.9757 N.ar    1  UNL1       -0.1076
     10 N          13.8994   40.4957    9.2511 N.ar    1  UNL1       -0.2053
     11 N          16.0703   40.8015    8.8143 N.ar    1  UNL1       -0.1707
     12 C          14.5327   42.2162    7.5089 C.ar    1  UNL1        0.1812
     13 C          13.5375   42.1524    6.5552 C.ar    1  UNL1        0.0439
     14 C          13.6892   43.3075    5.8074 C.ar    1  UNL1        0.0439
     15 C          14.7653   43.9891    6.3497 C.ar    1  UNL1        0.1798
     16 O          15.2466   43.3016    7.3575 O.2     1  UNL1       -0.4473
     17 O          16.8790   39.0914   10.3319 O.3     1  UNL1       -0.4430
     18 C          16.7081   37.7441   10.7470 C.3     1  UNL1        0.2406
     19 C          17.1115   36.8087    9.6226 C.3     1  UNL1        0.1894
     20 O          16.2096   35.7450    9.5697 O.3     1  UNL1       -0.3498
     21 C          13.8332   35.8635    9.4380 C.3     1  UNL1        0.0346
     22 C          15.1574   36.2010    8.7731 C.3     1  UNL1        0.1424
     23 C           7.5039   42.1532    9.6350 C.2     1  UNL1        0.2517
     24 O           8.1009   43.2620    9.5716 O.2     1  UNL1       -0.2697
     25 N           8.2316   40.9336    9.4295 N.am    1  UNL1       -0.2803
     26 H           7.7016   40.1116    9.3170 H       1  UNL1        0.1552
     27 C           6.0462   42.1266    9.8987 C.ar    1  UNL1        0.0811
     28 C           5.4941   41.4717   11.0204 C.ar    1  UNL1        0.1445
     29 C           4.1127   41.5046   11.2405 C.ar    1  UNL1        0.0298
     30 C           3.2683   42.1690   10.3487 C.ar    1  UNL1        0.0023
     31 C           3.8035   42.8063    9.2304 C.ar    1  UNL1        0.0003
     32 C           5.1824   42.7852    9.0086 C.ar    1  UNL1        0.0068
     33 F           6.2702   40.7977   11.9049 F       1  UNL1       -0.2040
@<TRIPOS>BOND
     1    21    22    1
     2    22    20    1
     3    19    20    1
     4    19    18    1
     5    18    17    1
     6     7    17    1
     7     7    11   ar
     8     8    12    1
     9    12    16   ar
    10    13    14   ar
    11    15    16   ar
    12     2     3   ar
    13     4    25    1
    14     4     5   ar
    15    23    27    1
    16    28    33    1
    17    28    29   ar
    18    30    31   ar
    19    32    27   ar
    20     6     1   ar
    21    10     9   ar
    22    10     8   ar
    23    10     1    1
    24    25    23   am
    25     7     9   ar
    26     8    11   ar
    27    12    13   ar
    28    14    15   ar
    29     1     2   ar
    30     3     4   ar
    31    23    24    2
    32    27    28   ar
    33    29    30   ar
    34    31    32   ar
    35     5     6   ar
    36    25    26    1
@<TRIPOS>MOLECULE
MolPort-016-906-836 ChemDiv-V029-4306 MCULE-6046758830 PubChem-45970893 ZINC000037385251 ZINC37385251
 33 36 0 0 0
SMALL
GASTEIGER

@<TRIPOS>ATOM
      1 C           9.1381   41.9206    9.6414 C.ar    1  UNL1        0.0848
      2 C           9.7251   41.0033    8.7560 C.ar    1  UNL1        0.0205
      3 C          10.9395   41.2986    8.1314 C.ar    1  UNL1        0.0162
      4 C          11.5972   42.5024    8.3984 C.ar    1  UNL1        0.0506
      5 C          11.0248   43.4126    9.2979 C.ar    1  UNL1        0.0162
      6 C           9.8078   43.1208    9.9176 C.ar    1  UNL1        0.0205
      7 C           5.8253   41.3014   10.6343 C.ar    1  UNL1        0.3385
      8 C           7.6663   41.4033   11.6344 C.ar    1  UNL1        0.2030
      9 N           6.7439   41.5434    9.6828 N.ar    1  UNL1       -0.1076
     10 N           7.9022   41.6242   10.3158 N.ar    1  UNL1       -0.2053
     11 N           6.3549   41.2044   11.8736 N.ar    1  UNL1       -0.1707
     12 C           8.6751   41.2773   12.6987 C.ar    1  UNL1        0.1812
     13 C          10.0407   41.1926   12.5201 C.ar    1  UNL1        0.0439
     14 C          10.5573   41.0601   13.7976 C.ar    1  UNL1        0.0439
     15 C           9.4761   41.0663   14.6621 C.ar    1  UNL1        0.1798
     16 O           8.3704   41.1890   13.9676 O.2     1  UNL1       -0.4473
     17 O           4.4615   41.2025   10.3581 O.3     1  UNL1       -0.4430
     18 C           3.9206   41.5437    9.0901 C.3     1  UNL1        0.2406
     19 C           3.3521   42.9495    9.1394 C.3     1  UNL1        0.1894
     20 O           4.3960   43.8563    9.3284 O.3     1  UNL1       -0.3498
     21 C           3.6561   45.2416    7.5360 C.3     1  UNL1        0.0346
     22 C           4.7309   44.2960    8.0461 C.3     1  UNL1        0.1424
     23 C          14.0844   42.1231    7.9407 C.2     1  UNL1        0.2517
     24 O          14.1299   41.0676    8.6289 O.2     1  UNL1       -0.2697
     25 N          12.8294   42.7839    7.7224 N.am    1  UNL1       -0.2803
     26 H          12.8133   43.4978    7.0447 H       1  UNL1        0.1552
     27 C          15.3313   42.6559    7.3439 C.ar    1  UNL1        0.0811
     28 C          15.3343   43.4131    6.1528 C.ar    1  UNL1        0.1445
     29 C          16.5369   43.9209    5.6490 C.ar    1  UNL1        0.0298
     30 C          17.7428   43.6717    6.3075 C.ar    1  UNL1        0.0023
     31 C          17.7510   42.9127    7.4766 C.ar    1  UNL1        0.0003
     32 C          16.5534   42.4098    7.9904 C.ar    1  UNL1        0.0068
     33 F          14.1921   43.6665    5.4672 F       1  UNL1       -0.2040
@<TRIPOS>BOND
     1    21    22    1
     2    22    20    1
     3    19    20    1
     4    19    18    1
     5    18    17    1
     6     7    17    1
     7     7    11   ar
     8     8    12    1
     9    12    16   ar
    10    13    14   ar
    11    15    16   ar
    12     2     3   ar
    13     4    25    1
    14     4     5   ar
    15    23    27    1
    16    28    33    1
    17    28    29   ar
    18    30    31   ar
    19    32    27   ar
    20     6     1   ar
    21    10     9   ar
    22    10     8   ar
    23    10     1    1
    24    25    23   am
    25     7     9   ar
    26     8    11   ar
    27    12    13   ar
    28    14    15   ar
    29     1     2   ar
    30     3     4   ar
    31    23    24    2
    32    27    28   ar
    33    29    30   ar
    34    31    32   ar
    35     5     6   ar
    36    25    26    1
@<TRIPOS>MOLECULE
MolPort-016-906-836 ChemDiv-V029-4306 MCULE-6046758830 PubChem-45970893 ZINC000037385251 ZINC37385251
 33 36 0 0 0
SMALL
GASTEIGER

@<TRIPOS>ATOM
      1 C          12.8879   39.8344    9.4940 C.ar    1  UNL1        0.0848
      2 C          12.9117   38.7724    8.5765 C.ar    1  UNL1        0.0205
      3 C          13.8212   37.7230    8.7303 C.ar    1  UNL1        0.0162
      4 C          14.7039   37.7059    9.8136 C.ar    1  UNL1        0.0506
      5 C          14.6696   38.7541   10.7438 C.ar    1  UNL1        0.0162
      6 C          13.7651   39.8064   10.5871 C.ar    1  UNL1        0.0205
      7 C          10.1633   42.0491    9.6185 C.ar    1  UNL1        0.3385
      8 C          12.0028   42.0348    8.6106 C.ar    1  UNL1        0.2030
      9 N          10.7885   40.9275   10.0173 N.ar    1  UNL1       -0.1076
     10 N          11.9410   40.9105    9.3690 N.ar    1  UNL1       -0.2053
     11 N          10.8846   42.7766    8.7376 N.ar    1  UNL1       -0.1707
     12 C          13.1522   42.4970    7.8160 C.ar    1  UNL1        0.1812
     13 C          14.3958   41.9018    7.7609 C.ar    1  UNL1        0.0439
     14 C          15.1368   42.7075    6.9134 C.ar    1  UNL1        0.0439
     15 C          14.3001   43.7370    6.5176 C.ar    1  UNL1        0.1798
     16 O          13.1277   43.5807    7.0841 O.2     1  UNL1       -0.4473
     17 O           8.8819   42.3922   10.0501 O.3     1  UNL1       -0.4430
     18 C           7.7242   41.6997    9.6061 C.3     1  UNL1        0.2406
     19 C           6.5458   42.6542    9.5581 C.3     1  UNL1        0.1894
     20 O           6.9080   43.7884    8.8299 O.3     1  UNL1       -0.3498
     21 C           4.9639   44.5789    7.7009 C.3     1  UNL1        0.0346
     22 C           6.1967   43.6927    7.6322 C.3     1  UNL1        0.1424
     23 C          17.0099   36.6453    9.5014 C.2     1  UNL1        0.2517
     24 O          17.5519   37.7343    9.1698 O.2     1  UNL1       -0.2697
     25 N          15.6399   36.6263    9.9282 N.am    1  UNL1       -0.2803
     26 H          15.3121   35.7935   10.3383 H       1  UNL1        0.1552
     27 C          17.8070   35.3969    9.4683 C.ar    1  UNL1        0.0811
     28 C          18.9527   35.2116   10.2713 C.ar    1  UNL1        0.1445
     29 C          19.6511   34.0000   10.2257 C.ar    1  UNL1        0.0298
     30 C          19.2332   32.9723    9.3777 C.ar    1  UNL1        0.0023
     31 C          18.1111   33.1520    8.5704 C.ar    1  UNL1        0.0003
     32 C          17.4037   34.3555    8.6169 C.ar    1  UNL1        0.0068
     33 F          19.4088   36.1859   11.0969 F       1  UNL1       -0.2040
@<TRIPOS>BOND
     1    21    22    1
     2    22    20    1
     3    19    20    1
     4    19    18    1
     5    18    17    1
     6     7    17    1
     7     7    11   ar
     8     8    12    1
     9    12    16   ar
    10    13    14   ar
    11    15    16   ar
    12     2     3   ar
    13     4    25    1
    14     4     5   ar
    15    23    27    1
    16    28    33    1
    17    28    29   ar
    18    30    31   ar
    19    32    27   ar
    20     6     1   ar
    21    10     9   ar
    22    10     8   ar
    23    10     1    1
    24    25    23   am
    25     7     9   ar
    26     8    11   ar
    27    12    13   ar
    28    14    15   ar
    29     1     2   ar
    30     3     4   ar
    31    23    24    2
    32    27    28   ar
    33    29    30   ar
    34    31    32   ar
    35     5     6   ar
    36    25    26    1
@<TRIPOS>MOLECULE
MolPort-016-906-836 ChemDiv-V029-4306 MCULE-6046758830 PubChem-45970893 ZINC000037385251 ZINC37385251
 33 36 0 0 0
SMALL
GASTEIGER

@<TRIPOS>ATOM
      1 C          12.4755   40.8255    8.9568 C.ar    1  UNL1        0.0848
      2 C          11.7498   41.1836   10.1036 C.ar    1  UNL1        0.0205
      3 C          10.3555   41.2638   10.0638 C.ar    1  UNL1        0.0162
      4 C           9.6637   40.9657    8.8867 C.ar    1  UNL1        0.0506
      5 C          10.3833   40.5876    7.7446 C.ar    1  UNL1        0.0162
      6 C          11.7773   40.5134    7.7820 C.ar    1  UNL1        0.0205
      7 C          15.9589   41.1675    8.6529 C.ar    1  UNL1        0.3385
      8 C          14.6888   39.7045    9.4569 C.ar    1  UNL1        0.2030
      9 N          14.7107   41.6405    8.4921 N.ar    1  UNL1       -0.1076
     10 N          13.9094   40.7105    8.9840 N.ar    1  UNL1       -0.2053
     11 N          15.9970   39.9578    9.2536 N.ar    1  UNL1       -0.1707
     12 C          14.2366   38.5173   10.2000 C.ar    1  UNL1        0.1812
     13 C          14.6026   38.1730   11.4851 C.ar    1  UNL1        0.0439
     14 C          13.9506   36.9767   11.7305 C.ar    1  UNL1        0.0439
     15 C          13.2411   36.6721   10.5815 C.ar    1  UNL1        0.1798
     16 O          13.4443   37.6109    9.6886 O.2     1  UNL1       -0.4473
     17 O          17.0884   41.8517    8.2031 O.3     1  UNL1       -0.4430
     18 C          17.4293   43.1445    8.6819 C.3     1  UNL1        0.2406
     19 C          17.6767   44.0742    7.5087 C.3     1  UNL1        0.1894
     20 O          16.9022   43.6563    6.4255 O.3     1  UNL1       -0.3498
     21 C          14.8283   44.1310    5.3519 C.3     1  UNL1        0.0346
     22 C          15.9163   44.6352    6.2857 C.3     1  UNL1        0.1424
     23 C           7.4853   42.3024    8.8018 C.2     1  UNL1        0.2517
     24 O           8.0694   43.3855    8.5271 O.2     1  UNL1       -0.2697
     25 N           8.2350   41.0809    8.8740 N.am    1  UNL1       -0.2803
     26 H           7.7197   40.2433    8.9191 H       1  UNL1        0.1552
     27 C           6.0205   42.3026    9.0238 C.ar    1  UNL1        0.0811
     28 C           5.2284   43.4551    8.8331 C.ar    1  UNL1        0.1445
     29 C           3.8438   43.3927    9.0251 C.ar    1  UNL1        0.0298
     30 C           3.2360   42.1995    9.4209 C.ar    1  UNL1        0.0023
     31 C           4.0124   41.0599    9.6255 C.ar    1  UNL1        0.0003
     32 C           5.3941   41.1122    9.4274 C.ar    1  UNL1        0.0068
     33 F           5.7739   44.6414    8.4670 F       1  UNL1       -0.2040
@<TRIPOS>BOND
     1    21    22    1
     2    22    20    1
     3    19    20    1
     4    19    18    1
     5    18    17    1
     6     7    17    1
     7     7    11   ar
     8     8    12    1
     9    12    16   ar
    10    13    14   ar
    11    15    16   ar
    12     2     3   ar
    13     4    25    1
    14     4     5   ar
    15    23    27    1
    16    28    33    1
    17    28    29   ar
    18    30    31   ar
    19    32    27   ar
    20     6     1   ar
    21    10     9   ar
    22    10     8   ar
    23    10     1    1
    24    25    23   am
    25     7     9   ar
    26     8    11   ar
    27    12    13   ar
    28    14    15   ar
    29     1     2   ar
    30     3     4   ar
    31    23    24    2
    32    27    28   ar
    33    29    30   ar
    34    31    32   ar
    35     5     6   ar
    36    25    26    1
