@<TRIPOS>MOLECULE
Molport-047-873-489 PubChem-165921913
 23 24 0 0 0
SMALL
GASTEIGER

@<TRIPOS>ATOM
      1 C          15.0911   42.1893    7.6770 C.ar    1  UNL1        0.0069
      2 C          14.5289   41.0117    8.2051 C.ar    1  UNL1        0.0048
      3 C          13.2675   40.6496    7.7417 C.ar    1  UNL1        0.0508
      4 C          12.5861   41.3893    6.8165 C.ar    1  UNL1        0.0817
      5 C          13.1136   42.5612    6.2761 C.ar    1  UNL1        0.0255
      6 C          14.3893   42.9590    6.7199 C.ar    1  UNL1        0.0361
      7 C          12.4315   39.5964    8.0367 C.ar    1  UNL1        0.1555
      8 BR         15.1761   44.5491    6.0258 Br      1  UNL1       -0.0489
      9 N          11.4010   40.8026    6.5663 N.ar    1  UNL1       -0.2382
     10 N          11.2912   39.7081    7.3123 N.ar    1  UNL1       -0.1535
     11 C          11.7780   37.5423    9.3756 C.2     1  UNL1        0.3226
     12 N          12.7127   38.5494    8.9710 N.am    1  UNL1       -0.2611
     13 O          10.5953   37.5500    8.9386 O.2     1  UNL1       -0.2656
     14 H          13.6147   38.5191    9.3644 H       1  UNL1        0.1566
     15 C          12.1919   36.5112   10.3764 C.3     1  UNL1        0.4698
     16 F          12.9534   37.0973   11.3712 F       1  UNL1       -0.1620
     17 F          12.9406   35.5231    9.7622 F       1  UNL1       -0.1620
     18 F          11.0655   35.9437   10.9411 F       1  UNL1       -0.1620
     19 C          10.3564   41.2909    5.6785 C.3     1  UNL1        0.2360
     20 C           9.2964   41.9775    6.4679 C.2     1  UNL1        0.3390
     21 O           9.3632   42.0013    7.7240 O.2     1  UNL1       -0.2481
     22 O           8.2126   42.5549    5.8202 O.3     1  UNL1       -0.4788
     23 H           8.1623   42.5375    4.8847 H       1  UNL1        0.2951
@<TRIPOS>BOND
     1     2     3   ar
     2     4     5   ar
     3     4     9   ar
     4     6     8    1
     5     6     1   ar
     6     7    12    1
     7     7     3   ar
     8    15    11    1
     9    15    16    1
    10    15    17    1
    11    15    18    1
    12    19     9    1
    13    19    20    1
    14    20    22    1
    15     9    10   ar
    16    12    11   am
    17     1     2   ar
    18     3     4   ar
    19     5     6   ar
    20     7    10   ar
    21    11    13    2
    22    20    21    2
    23    12    14    1
    24    22    23    1
@<TRIPOS>MOLECULE
Molport-047-873-489 PubChem-165921913
 23 24 0 0 0
SMALL
GASTEIGER

@<TRIPOS>ATOM
      1 C          10.7344   40.3206    6.0094 C.ar    1  UNL1        0.0069
      2 C          11.9893   40.9517    6.1019 C.ar    1  UNL1        0.0048
      3 C          12.6646   40.8428    7.3141 C.ar    1  UNL1        0.0508
      4 C          12.1511   40.1598    8.3806 C.ar    1  UNL1        0.0817
      5 C          10.9106   39.5264    8.3223 C.ar    1  UNL1        0.0255
      6 C          10.1982   39.6134    7.1108 C.ar    1  UNL1        0.0361
      7 C          13.8749   41.3282    7.7553 C.ar    1  UNL1        0.1555
      8 BR          8.4962   38.7719    6.9550 Br      1  UNL1       -0.0489
      9 N          13.0165   40.2292    9.4090 N.ar    1  UNL1       -0.2382
     10 N          14.0725   40.9477    9.0413 N.ar    1  UNL1       -0.1535
     11 C          14.5368   43.4692    6.5649 C.2     1  UNL1        0.3226
     12 N          14.7824   42.1217    6.9840 N.am    1  UNL1       -0.2611
     13 O          13.4437   44.0370    6.8339 O.2     1  UNL1       -0.2656
     14 H          15.6382   41.7113    6.7222 H       1  UNL1        0.1566
     15 C          15.5618   44.1848    5.7444 C.3     1  UNL1        0.4698
     16 F          15.2830   44.0284    4.3988 F       1  UNL1       -0.1620
     17 F          16.8217   43.6751    6.0034 F       1  UNL1       -0.1620
     18 F          15.5419   45.5303    6.0594 F       1  UNL1       -0.1620
     19 C          12.8329   39.6752   10.7420 C.3     1  UNL1        0.2360
     20 C          13.9896   38.8065   11.0967 C.2     1  UNL1        0.3390
     21 O          14.4617   38.8325   12.2626 O.2     1  UNL1       -0.2481
     22 O          14.5736   37.9991   10.1301 O.3     1  UNL1       -0.4788
     23 H          14.2224   37.9793    9.2616 H       1  UNL1        0.2951
@<TRIPOS>BOND
     1     2     3   ar
     2     4     5   ar
     3     4     9   ar
     4     6     8    1
     5     6     1   ar
     6     7    12    1
     7     7     3   ar
     8    15    11    1
     9    15    16    1
    10    15    17    1
    11    15    18    1
    12    19     9    1
    13    19    20    1
    14    20    22    1
    15     9    10   ar
    16    12    11   am
    17     1     2   ar
    18     3     4   ar
    19     5     6   ar
    20     7    10   ar
    21    11    13    2
    22    20    21    2
    23    12    14    1
    24    22    23    1
@<TRIPOS>MOLECULE
Molport-047-873-489 PubChem-165921913
 23 24 0 0 0
SMALL
GASTEIGER

@<TRIPOS>ATOM
      1 C          11.3683   40.7847    6.4985 C.ar    1  UNL1        0.0069
      2 C          12.5854   41.4746    6.6550 C.ar    1  UNL1        0.0048
      3 C          13.4395   41.0312    7.6604 C.ar    1  UNL1        0.0508
      4 C          13.1307   39.9760    8.4722 C.ar    1  UNL1        0.0817
      5 C          11.9331   39.2738    8.3449 C.ar    1  UNL1        0.0255
      6 C          11.0437   39.6927    7.3369 C.ar    1  UNL1        0.0361
      7 C          14.6729   41.4615    8.0948 C.ar    1  UNL1        0.1555
      8 BR          9.3877   38.7809    7.1016 Br      1  UNL1       -0.0489
      9 N          14.1350   39.7816    9.3468 N.ar    1  UNL1       -0.2382
     10 N          15.0819   40.6890    9.1308 N.ar    1  UNL1       -0.1535
     11 C          16.8357   42.6808    7.5708 C.2     1  UNL1        0.3226
     12 N          15.4086   42.5608    7.5483 N.am    1  UNL1       -0.2611
     13 O          17.5460   41.8032    8.1321 O.2     1  UNL1       -0.2656
     14 H          14.8962   43.2877    7.1260 H       1  UNL1        0.1566
     15 C          17.4834   43.8921    6.9797 C.3     1  UNL1        0.4698
     16 F          18.0257   43.5830    5.7455 F       1  UNL1       -0.1620
     17 F          18.4911   44.3482    7.8107 F       1  UNL1       -0.1620
     18 F          16.5369   44.8870    6.8240 F       1  UNL1       -0.1620
     19 C          14.1845   38.7909   10.4115 C.3     1  UNL1        0.2360
     20 C          15.3631   37.8998   10.2243 C.2     1  UNL1        0.3390
     21 O          15.8438   37.2775   11.2064 O.2     1  UNL1       -0.2481
     22 O          15.9575   37.7882    8.9746 O.3     1  UNL1       -0.4788
     23 H          15.6000   38.2515    8.2428 H       1  UNL1        0.2951
@<TRIPOS>BOND
     1     2     3   ar
     2     4     5   ar
     3     4     9   ar
     4     6     8    1
     5     6     1   ar
     6     7    12    1
     7     7     3   ar
     8    15    11    1
     9    15    16    1
    10    15    17    1
    11    15    18    1
    12    19     9    1
    13    19    20    1
    14    20    22    1
    15     9    10   ar
    16    12    11   am
    17     1     2   ar
    18     3     4   ar
    19     5     6   ar
    20     7    10   ar
    21    11    13    2
    22    20    21    2
    23    12    14    1
    24    22    23    1
@<TRIPOS>MOLECULE
Molport-047-873-489 PubChem-165921913
 23 24 0 0 0
SMALL
GASTEIGER

@<TRIPOS>ATOM
      1 C          15.1203   42.9693    6.9137 C.ar    1  UNL1        0.0069
      2 C          13.9878   42.1428    7.0404 C.ar    1  UNL1        0.0048
      3 C          14.0539   41.1184    7.9803 C.ar    1  UNL1        0.0508
      4 C          15.1588   40.9051    8.7557 C.ar    1  UNL1        0.0817
      5 C          16.2969   41.7036    8.6529 C.ar    1  UNL1        0.0255
      6 C          16.2667   42.7518    7.7133 C.ar    1  UNL1        0.0361
      7 C          13.1637   40.1382    8.3569 C.ar    1  UNL1        0.1555
      8 BR         17.7845   43.8862    7.5166 Br      1  UNL1       -0.0489
      9 N          14.9370   39.8502    9.5617 N.ar    1  UNL1       -0.2382
     10 N          13.7221   39.3675    9.3221 N.ar    1  UNL1       -0.1535
     11 C          10.9267   38.9464    8.2365 C.2     1  UNL1        0.3226
     12 N          11.8548   39.9502    7.8093 N.am    1  UNL1       -0.2611
     13 O          11.2442   38.1158    9.1304 O.2     1  UNL1       -0.2656
     14 H          11.5717   40.5551    7.0860 H       1  UNL1        0.1566
     15 C           9.5928   38.8430    7.5686 C.3     1  UNL1        0.4698
     16 F           9.0509   37.5895    7.7871 F       1  UNL1       -0.1620
     17 F           9.7243   39.0432    6.2059 F       1  UNL1       -0.1620
     18 F           8.7449   39.8020    8.0894 F       1  UNL1       -0.1620
     19 C          15.8738   39.2642   10.5086 C.3     1  UNL1        0.2360
     20 C          15.1317   38.5426   11.5795 C.2     1  UNL1        0.3390
     21 O          14.1469   39.0890   12.1404 O.2     1  UNL1       -0.2481
     22 O          15.5519   37.2841   11.9882 O.3     1  UNL1       -0.4788
     23 H          16.2852   36.8766   11.5708 H       1  UNL1        0.2951
@<TRIPOS>BOND
     1     2     3   ar
     2     4     5   ar
     3     4     9   ar
     4     6     8    1
     5     6     1   ar
     6     7    12    1
     7     7     3   ar
     8    15    11    1
     9    15    16    1
    10    15    17    1
    11    15    18    1
    12    19     9    1
    13    19    20    1
    14    20    22    1
    15     9    10   ar
    16    12    11   am
    17     1     2   ar
    18     3     4   ar
    19     5     6   ar
    20     7    10   ar
    21    11    13    2
    22    20    21    2
    23    12    14    1
    24    22    23    1
@<TRIPOS>MOLECULE
Molport-047-873-489 PubChem-165921913
 23 24 0 0 0
SMALL
GASTEIGER

@<TRIPOS>ATOM
      1 C          12.5667   39.0944    8.1376 C.ar    1  UNL1        0.0069
      2 C          12.9690   40.3619    7.6757 C.ar    1  UNL1        0.0048
      3 C          12.4283   41.4710    8.3196 C.ar    1  UNL1        0.0508
      4 C          11.5439   41.3586    9.3553 C.ar    1  UNL1        0.0817
      5 C          11.1235   40.1187    9.8345 C.ar    1  UNL1        0.0255
      6 C          11.6507   38.9728    9.2085 C.ar    1  UNL1        0.0361
      7 C          12.5830   42.8262    8.1331 C.ar    1  UNL1        0.1555
      8 BR         11.1239   37.2434    9.8091 Br      1  UNL1       -0.0489
      9 N          11.1910   42.5888    9.7717 N.ar    1  UNL1       -0.2382
     10 N          11.8147   43.4958    9.0269 N.ar    1  UNL1       -0.1535
     11 C          14.8456   43.3619    7.1170 C.2     1  UNL1        0.3226
     12 N          13.4156   43.4385    7.1431 N.am    1  UNL1       -0.2611
     13 O          15.4738   42.7561    8.0271 O.2     1  UNL1       -0.2656
     14 H          12.9730   43.9497    6.4276 H       1  UNL1        0.1566
     15 C          15.6022   44.0636    6.0348 C.3     1  UNL1        0.4698
     16 F          15.6539   45.4204    6.2979 F       1  UNL1       -0.1620
     17 F          14.9819   43.8670    4.8139 F       1  UNL1       -0.1620
     18 F          16.8889   43.5624    5.9773 F       1  UNL1       -0.1620
     19 C          10.2362   42.9138   10.8207 C.3     1  UNL1        0.2360
     20 C           8.8464   42.7043   10.3277 C.2     1  UNL1        0.3390
     21 O           8.0320   42.0298   11.0094 O.2     1  UNL1       -0.2481
     22 O           8.4618   43.2175    9.0965 O.3     1  UNL1       -0.4788
     23 H           9.0679   43.7199    8.5883 H       1  UNL1        0.2951
@<TRIPOS>BOND
     1     2     3   ar
     2     4     5   ar
     3     4     9   ar
     4     6     8    1
     5     6     1   ar
     6     7    12    1
     7     7     3   ar
     8    15    11    1
     9    15    16    1
    10    15    17    1
    11    15    18    1
    12    19     9    1
    13    19    20    1
    14    20    22    1
    15     9    10   ar
    16    12    11   am
    17     1     2   ar
    18     3     4   ar
    19     5     6   ar
    20     7    10   ar
    21    11    13    2
    22    20    21    2
    23    12    14    1
    24    22    23    1
@<TRIPOS>MOLECULE
Molport-047-873-489 PubChem-165921913
 23 24 0 0 0
SMALL
GASTEIGER

@<TRIPOS>ATOM
      1 C          15.1235   42.4815    7.4309 C.ar    1  UNL1        0.0069
      2 C          14.6998   41.5249    8.3727 C.ar    1  UNL1        0.0048
      3 C          13.4618   40.9274    8.1548 C.ar    1  UNL1        0.0508
      4 C          12.6752   41.2407    7.0820 C.ar    1  UNL1        0.0817
      5 C          13.0645   42.1851    6.1332 C.ar    1  UNL1        0.0255
      6 C          14.3125   42.8100    6.3195 C.ar    1  UNL1        0.0361
      7 C          12.7443   39.9840    8.8550 C.ar    1  UNL1        0.1555
      8 BR         14.9128   44.1105    5.0636 Br      1  UNL1       -0.0489
      9 N          11.5434   40.5144    7.1358 N.ar    1  UNL1       -0.2382
     10 N          11.5703   39.7465    8.2203 N.ar    1  UNL1       -0.1535
     11 C          14.2543   38.4354   10.1819 C.2     1  UNL1        0.3226
     12 N          13.1631   39.3565   10.0712 N.am    1  UNL1       -0.2611
     13 O          14.9065   38.0856    9.1611 O.2     1  UNL1       -0.2656
     14 H          12.6646   39.5739   10.8919 H       1  UNL1        0.1566
     15 C          14.5797   37.8338   11.5116 C.3     1  UNL1        0.4698
     16 F          15.8429   37.2714   11.4793 F       1  UNL1       -0.1620
     17 F          13.6594   36.8508   11.8290 F       1  UNL1       -0.1620
     18 F          14.5454   38.8189   12.4802 F       1  UNL1       -0.1620
     19 C          10.4215   40.5783    6.2111 C.3     1  UNL1        0.2360
     20 C           9.4285   41.5829    6.6831 C.2     1  UNL1        0.3390
     21 O           8.6209   42.1001    5.8687 O.2     1  UNL1       -0.2481
     22 O           9.4214   41.9802    8.0133 O.3     1  UNL1       -0.4788
     23 H          10.0226   41.5954    8.6204 H       1  UNL1        0.2951
@<TRIPOS>BOND
     1     2     3   ar
     2     4     5   ar
     3     4     9   ar
     4     6     8    1
     5     6     1   ar
     6     7    12    1
     7     7     3   ar
     8    15    11    1
     9    15    16    1
    10    15    17    1
    11    15    18    1
    12    19     9    1
    13    19    20    1
    14    20    22    1
    15     9    10   ar
    16    12    11   am
    17     1     2   ar
    18     3     4   ar
    19     5     6   ar
    20     7    10   ar
    21    11    13    2
    22    20    21    2
    23    12    14    1
    24    22    23    1
@<TRIPOS>MOLECULE
Molport-047-873-489 PubChem-165921913
 23 24 0 0 0
SMALL
GASTEIGER

@<TRIPOS>ATOM
      1 C          12.8985   38.8398    8.5774 C.ar    1  UNL1        0.0069
      2 C          13.1094   39.9109    7.6886 C.ar    1  UNL1        0.0048
      3 C          11.9790   40.5170    7.1483 C.ar    1  UNL1        0.0508
      4 C          10.7113   40.1068    7.4520 C.ar    1  UNL1        0.0817
      5 C          10.4685   39.0481    8.3260 C.ar    1  UNL1        0.0255
      6 C          11.5883   38.4108    8.8940 C.ar    1  UNL1        0.0361
      7 C          11.8108   41.5562    6.2612 C.ar    1  UNL1        0.1555
      8 BR         11.3358   36.9568   10.0986 Br      1  UNL1       -0.0489
      9 N           9.8270   40.8688    6.7821 N.ar    1  UNL1       -0.2382
     10 N          10.4876   41.7551    6.0441 N.ar    1  UNL1       -0.1535
     11 C          13.6969   43.2521    6.3338 C.2     1  UNL1        0.3226
     12 N          12.8659   42.3062    5.6510 N.am    1  UNL1       -0.2611
     13 O          13.5076   43.5119    7.5530 O.2     1  UNL1       -0.2656
     14 H          13.0329   42.1613    4.6916 H       1  UNL1        0.1566
     15 C          14.7563   43.9858    5.5753 C.3     1  UNL1        0.4698
     16 F          14.5361   45.3489    5.6550 F       1  UNL1       -0.1620
     17 F          14.7407   43.6062    4.2450 F       1  UNL1       -0.1620
     18 F          15.9932   43.6927    6.1175 F       1  UNL1       -0.1620
     19 C           8.3781   40.7335    6.7889 C.3     1  UNL1        0.2360
     20 C           7.7964   41.5365    7.9003 C.2     1  UNL1        0.3390
     21 O           7.7287   42.7891    7.8030 O.2     1  UNL1       -0.2481
     22 O           7.3675   40.9071    9.0610 O.3     1  UNL1       -0.4788
     23 H           7.4177   39.9743    9.1340 H       1  UNL1        0.2951
@<TRIPOS>BOND
     1     2     3   ar
     2     4     5   ar
     3     4     9   ar
     4     6     8    1
     5     6     1   ar
     6     7    12    1
     7     7     3   ar
     8    15    11    1
     9    15    16    1
    10    15    17    1
    11    15    18    1
    12    19     9    1
    13    19    20    1
    14    20    22    1
    15     9    10   ar
    16    12    11   am
    17     1     2   ar
    18     3     4   ar
    19     5     6   ar
    20     7    10   ar
    21    11    13    2
    22    20    21    2
    23    12    14    1
    24    22    23    1
@<TRIPOS>MOLECULE
Molport-047-873-489 PubChem-165921913
 23 24 0 0 0
SMALL
GASTEIGER

@<TRIPOS>ATOM
      1 C          12.4208   38.4788    8.8209 C.ar    1  UNL1        0.0069
      2 C          12.9515   39.6474    8.2427 C.ar    1  UNL1        0.0048
      3 C          14.2196   40.0406    8.6604 C.ar    1  UNL1        0.0508
      4 C          14.9355   39.3396    9.5897 C.ar    1  UNL1        0.0817
      5 C          14.4376   38.1803   10.1829 C.ar    1  UNL1        0.0255
      6 C          13.1575   37.7503    9.7840 C.ar    1  UNL1        0.0361
      7 C          15.0235   41.1071    8.3266 C.ar    1  UNL1        0.1555
      8 BR         12.4109   36.1738   10.5499 Br      1  UNL1       -0.0489
      9 N          16.1141   39.9553    9.7973 N.ar    1  UNL1       -0.2382
     10 N          16.1771   41.0425    9.0353 N.ar    1  UNL1       -0.1535
     11 C          15.5803   43.1785    6.9708 C.2     1  UNL1        0.3226
     12 N          14.6926   42.1341    7.3863 N.am    1  UNL1       -0.2611
     13 O          16.7373   43.2727    7.4630 O.2     1  UNL1       -0.2656
     14 H          13.7886   42.1218    6.9966 H       1  UNL1        0.1566
     15 C          15.1052   44.2045    5.9922 C.3     1  UNL1        0.4698
     16 F          13.7352   44.3611    6.0996 F       1  UNL1       -0.1620
     17 F          15.4116   43.8114    4.7016 F       1  UNL1       -0.1620
     18 F          15.7230   45.4116    6.2588 F       1  UNL1       -0.1620
     19 C          17.1495   39.5612   10.7408 C.3     1  UNL1        0.2360
     20 C          18.3953   39.1998   10.0089 C.2     1  UNL1        0.3390
     21 O          19.0157   38.1461   10.3049 O.2     1  UNL1       -0.2481
     22 O          18.8951   40.0465    9.0288 O.3     1  UNL1       -0.4788
     23 H          18.4335   40.8314    8.8078 H       1  UNL1        0.2951
@<TRIPOS>BOND
     1     2     3   ar
     2     4     5   ar
     3     4     9   ar
     4     6     8    1
     5     6     1   ar
     6     7    12    1
     7     7     3   ar
     8    15    11    1
     9    15    16    1
    10    15    17    1
    11    15    18    1
    12    19     9    1
    13    19    20    1
    14    20    22    1
    15     9    10   ar
    16    12    11   am
    17     1     2   ar
    18     3     4   ar
    19     5     6   ar
    20     7    10   ar
    21    11    13    2
    22    20    21    2
    23    12    14    1
    24    22    23    1
@<TRIPOS>MOLECULE
Molport-047-873-489 PubChem-165921913
 23 24 0 0 0
SMALL
GASTEIGER

@<TRIPOS>ATOM
      1 C          15.9040   42.8160    7.4101 C.ar    1  UNL1        0.0069
      2 C          16.0375   41.7658    8.3379 C.ar    1  UNL1        0.0048
      3 C          14.9093   40.9874    8.5795 C.ar    1  UNL1        0.0508
      4 C          13.7146   41.2148    7.9562 C.ar    1  UNL1        0.0817
      5 C          13.5487   42.2476    7.0346 C.ar    1  UNL1        0.0255
      6 C          14.6692   43.0560    6.7631 C.ar    1  UNL1        0.0361
      7 C          14.6762   39.9132    9.4084 C.ar    1  UNL1        0.1555
      8 BR         14.5198   44.4866    5.5140 Br      1  UNL1       -0.0489
      9 N          12.8116   40.3152    8.3882 N.ar    1  UNL1       -0.2382
     10 N          13.3859   39.5173    9.2827 N.ar    1  UNL1       -0.1535
     11 C          16.4125   38.1474    9.9616 C.2     1  UNL1        0.3226
     12 N          15.6400   39.3112   10.2784 N.am    1  UNL1       -0.2611
     13 O          16.2478   37.5449    8.8662 O.2     1  UNL1       -0.2656
     14 H          15.7824   39.7274   11.1591 H       1  UNL1        0.1566
     15 C          17.3763   37.6054   10.9682 C.3     1  UNL1        0.4698
     16 F          16.7048   37.2605   12.1271 F       1  UNL1       -0.1620
     17 F          18.3349   38.5557   11.2714 F       1  UNL1       -0.1620
     18 F          17.9956   36.4835   10.4508 F       1  UNL1       -0.1620
     19 C          11.4087   40.2368    8.0093 C.3     1  UNL1        0.2360
     20 C          10.5492   40.6788    9.1425 C.2     1  UNL1        0.3390
     21 O           9.3140   40.8429    8.9685 O.2     1  UNL1       -0.2481
     22 O          11.1172   40.9504   10.3798 O.3     1  UNL1       -0.4788
     23 H          12.0371   40.8284   10.5100 H       1  UNL1        0.2951
@<TRIPOS>BOND
     1     2     3   ar
     2     4     5   ar
     3     4     9   ar
     4     6     8    1
     5     6     1   ar
     6     7    12    1
     7     7     3   ar
     8    15    11    1
     9    15    16    1
    10    15    17    1
    11    15    18    1
    12    19     9    1
    13    19    20    1
    14    20    22    1
    15     9    10   ar
    16    12    11   am
    17     1     2   ar
    18     3     4   ar
    19     5     6   ar
    20     7    10   ar
    21    11    13    2
    22    20    21    2
    23    12    14    1
    24    22    23    1
@<TRIPOS>MOLECULE
Molport-047-873-489 PubChem-165921913
 23 24 0 0 0
SMALL
GASTEIGER

@<TRIPOS>ATOM
      1 C          14.7298   43.0180    6.7941 C.ar    1  UNL1        0.0069
      2 C          13.6048   42.1748    6.8655 C.ar    1  UNL1        0.0048
      3 C          13.6784   41.0941    7.7394 C.ar    1  UNL1        0.0508
      4 C          14.7836   40.8427    8.5031 C.ar    1  UNL1        0.0817
      5 C          15.9144   41.6566    8.4537 C.ar    1  UNL1        0.0255
      6 C          15.8764   42.7614    7.5816 C.ar    1  UNL1        0.0361
      7 C          12.7967   40.0839    8.0513 C.ar    1  UNL1        0.1555
      8 BR         17.3839   43.9198    7.4607 Br      1  UNL1       -0.0489
      9 N          14.5700   39.7374    9.2407 N.ar    1  UNL1       -0.2382
     10 N          13.3602   39.2594    8.9679 N.ar    1  UNL1       -0.1535
     11 C          10.5287   38.9526    7.9282 C.2     1  UNL1        0.3226
     12 N          11.4909   39.9185    7.4893 N.am    1  UNL1       -0.2611
     13 O          10.8098   38.1369    8.8477 O.2     1  UNL1       -0.2656
     14 H          11.2353   40.5122    6.7467 H       1  UNL1        0.1566
     15 C           9.2020   38.8694    7.2434 C.3     1  UNL1        0.4698
     16 F           8.3053   39.7343    7.8440 F       1  UNL1       -0.1620
     17 F           8.7037   37.5811    7.3226 F       1  UNL1       -0.1620
     18 F           9.3503   39.2189    5.9146 F       1  UNL1       -0.1620
     19 C          15.5101   39.1018   10.1516 C.3     1  UNL1        0.2360
     20 C          14.9007   38.9724   11.5045 C.2     1  UNL1        0.3390
     21 O          15.5359   38.4022   12.4288 O.2     1  UNL1       -0.2481
     22 O          13.6152   39.4432   11.7347 O.3     1  UNL1       -0.4788
     23 H          13.1415   39.8679   11.0468 H       1  UNL1        0.2951
@<TRIPOS>BOND
     1     2     3   ar
     2     4     5   ar
     3     4     9   ar
     4     6     8    1
     5     6     1   ar
     6     7    12    1
     7     7     3   ar
     8    15    11    1
     9    15    16    1
    10    15    17    1
    11    15    18    1
    12    19     9    1
    13    19    20    1
    14    20    22    1
    15     9    10   ar
    16    12    11   am
    17     1     2   ar
    18     3     4   ar
    19     5     6   ar
    20     7    10   ar
    21    11    13    2
    22    20    21    2
    23    12    14    1
    24    22    23    1
