@<TRIPOS>MOLECULE
MolPort-004-979-229 CSSS00159754183 MCULE-9377558138 PubChem-45159487
 30 32 0 0 0
SMALL
GASTEIGER

@<TRIPOS>ATOM
      1 C          12.1517   41.2395    7.2336 C.ar    1  UNL1        0.0642
      2 C          11.7952   39.9333    7.6499 C.ar    1  UNL1        0.1147
      3 C          13.8482   39.7100    8.7634 C.ar    1  UNL1        0.1453
      4 C          15.8618   39.9543    9.5141 C.ar    1  UNL1        0.1514
      5 C          15.5120   41.1506    8.8806 C.ar    1  UNL1        0.0757
      6 C          14.2286   40.9707    8.3932 C.ar    1  UNL1        0.0505
      7 C          13.4015   41.7634    7.6038 C.ar    1  UNL1        0.0202
      8 N          12.6517   39.1819    8.4029 N.ar    1  UNL1       -0.2254
      9 N          14.8212   39.0808    9.4479 N.ar    1  UNL1       -0.3040
     10 C          16.5316   43.0136    7.4648 C.2     1  UNL1        0.2266
     11 C          17.6554   43.9756    7.3292 C.3     1  UNL1        0.0949
     12 N          16.3827   42.2732    8.6791 N.am    1  UNL1       -0.2825
     13 O          15.6915   42.9094    6.5331 O.2     1  UNL1       -0.2748
     14 H          16.9277   42.5599    9.4473 H       1  UNL1        0.1549
     15 C          17.1631   39.6713   10.1577 C.2     1  UNL1        0.3587
     16 O          17.2159   39.4416   11.3964 O.2     1  UNL1       -0.2432
     17 C          19.3864   38.7412    9.6539 C.3     1  UNL1        0.2560
     18 O          18.3317   39.6554    9.3951 O.3     1  UNL1       -0.4403
     19 N          11.2696   42.0419    6.4374 N.pl3   1  UNL1       -0.3328
     20 H          11.4860   42.9989    6.3556 H       1  UNL1        0.1468
     21 C          10.0782   41.5675    5.7364 C.3     1  UNL1        0.0691
     22 C           8.8329   41.7824    6.5832 C.3     1  UNL1        0.0212
     23 C          10.7291   40.0029    3.9041 C.3     1  UNL1        0.0017
     24 C          10.2309   40.1076    5.3316 C.3     1  UNL1        0.0195
     25 C          14.7847   37.6952    9.9052 C.3     1  UNL1        0.1371
     26 C          15.1064   36.7489    8.7577 C.3     1  UNL1        0.1378
     27 C          14.5911   35.3720    9.0731 C.3     1  UNL1        0.0341
     28 C          15.5518   34.4789    8.3532 C.3     1  UNL1        0.0346
     29 C          16.7206   35.3849    8.0179 C.3     1  UNL1        0.1422
     30 O          16.4937   36.6601    8.5704 O.3     1  UNL1       -0.3543
@<TRIPOS>BOND
     1    23    24    1
     2    21    24    1
     3    21    22    1
     4    21    19    1
     5     2     8   ar
     6     3     9   ar
     7    25     9    1
     8    26    25    1
     9    26    27    1
    10    26    30    1
    11    27    28    1
    12    28    29    1
    13    29    30    1
    14     4    15    1
    15    15    18    1
    16    17    18    1
    17     5    12    1
    18     5     6   ar
    19    11    10    1
    20     6     3   ar
    21     7     1   ar
    22    19     1    1
    23     9     4   ar
    24    12    10   am
    25     1     2   ar
    26     3     8   ar
    27     4     5   ar
    28    15    16    2
    29    10    13    2
    30     6     7   ar
    31    19    20    1
    32    12    14    1
@<TRIPOS>MOLECULE
MolPort-004-979-229 CSSS00159754183 MCULE-9377558138 PubChem-45159487
 30 32 0 0 0
SMALL
GASTEIGER

@<TRIPOS>ATOM
      1 C          14.5720   42.9743    7.4829 C.ar    1  UNL1        0.0642
      2 C          13.1826   42.9013    7.2166 C.ar    1  UNL1        0.1147
      3 C          13.1012   40.7478    8.1441 C.ar    1  UNL1        0.1453
      4 C          13.5655   38.8055    8.9745 C.ar    1  UNL1        0.1514
      5 C          14.7505   39.5476    8.9786 C.ar    1  UNL1        0.0757
      6 C          14.4385   40.7799    8.4299 C.ar    1  UNL1        0.0505
      7 C          15.2149   41.8837    8.0918 C.ar    1  UNL1        0.0202
      8 N          12.4663   41.7854    7.5433 N.ar    1  UNL1       -0.2254
      9 N          12.5536   39.5630    8.4719 N.ar    1  UNL1       -0.3040
     10 C          16.5339   38.9312   10.6974 C.2     1  UNL1        0.2266
     11 C          17.9759   38.6548   10.9232 C.3     1  UNL1        0.0949
     12 N          16.0425   39.0535    9.3601 N.am    1  UNL1       -0.2825
     13 O          15.7546   38.9926   11.6842 O.2     1  UNL1       -0.2748
     14 H          16.6460   38.7729    8.6346 H       1  UNL1        0.1549
     15 C          13.4246   37.4087    9.4404 C.2     1  UNL1        0.3587
     16 O          14.0108   36.4776    8.8244 O.2     1  UNL1       -0.2432
     17 C          11.8559   35.9447   10.6476 C.3     1  UNL1        0.2560
     18 O          12.6462   37.1209   10.5622 O.3     1  UNL1       -0.4403
     19 N          15.3430   44.1341    7.1420 N.pl3   1  UNL1       -0.3328
     20 H          15.4939   44.7969    7.8542 H       1  UNL1        0.1468
     21 C          15.9252   44.4212    5.8325 C.3     1  UNL1        0.0691
     22 C          15.0653   43.8393    4.7208 C.3     1  UNL1        0.0212
     23 C          18.0327   44.0118    7.1053 C.3     1  UNL1        0.0017
     24 C          17.3583   43.9132    5.7516 C.3     1  UNL1        0.0195
     25 C          11.1756   39.1580    8.2124 C.3     1  UNL1        0.1371
     26 C          10.2654   39.6187    9.3416 C.3     1  UNL1        0.1378
     27 C           9.4650   40.8112    8.8964 C.3     1  UNL1        0.0341
     28 C           9.2514   41.5686   10.1690 C.3     1  UNL1        0.0346
     29 C          10.2477   40.9584   11.1356 C.3     1  UNL1        0.1422
     30 O          11.0244   39.9986   10.4583 O.3     1  UNL1       -0.3543
@<TRIPOS>BOND
     1    23    24    1
     2    21    24    1
     3    21    22    1
     4    21    19    1
     5     2     8   ar
     6     3     9   ar
     7    25     9    1
     8    26    25    1
     9    26    27    1
    10    26    30    1
    11    27    28    1
    12    28    29    1
    13    29    30    1
    14     4    15    1
    15    15    18    1
    16    17    18    1
    17     5    12    1
    18     5     6   ar
    19    11    10    1
    20     6     3   ar
    21     7     1   ar
    22    19     1    1
    23     9     4   ar
    24    12    10   am
    25     1     2   ar
    26     3     8   ar
    27     4     5   ar
    28    15    16    2
    29    10    13    2
    30     6     7   ar
    31    19    20    1
    32    12    14    1
@<TRIPOS>MOLECULE
MolPort-004-979-229 CSSS00159754183 MCULE-9377558138 PubChem-45159487
 30 32 0 0 0
SMALL
GASTEIGER

@<TRIPOS>ATOM
      1 C          14.3944   42.9277    6.8131 C.ar    1  UNL1        0.0642
      2 C          13.1982   42.9511    6.0547 C.ar    1  UNL1        0.1147
      3 C          12.4557   41.0053    7.1350 C.ar    1  UNL1        0.1453
      4 C          12.2835   39.1951    8.3060 C.ar    1  UNL1        0.1514
      5 C          13.4896   39.8037    8.6662 C.ar    1  UNL1        0.0757
      6 C          13.5906   40.9503    7.8967 C.ar    1  UNL1        0.0505
      7 C          14.5989   41.8969    7.7454 C.ar    1  UNL1        0.0202
      8 N          12.2475   41.9847    6.2195 N.ar    1  UNL1       -0.2254
      9 N          11.6491   39.9545    7.3727 N.ar    1  UNL1       -0.3040
     10 C          14.4172   39.3010   10.9904 C.2     1  UNL1        0.2266
     11 C          15.6210   38.9250   11.7753 C.3     1  UNL1        0.0949
     12 N          14.4663   39.2537    9.5620 N.am    1  UNL1       -0.2825
     13 O          13.3529   39.5962   11.5945 O.2     1  UNL1       -0.2748
     14 H          15.2414   38.8024    9.1559 H       1  UNL1        0.1549
     15 C          11.7692   37.9189    8.8488 C.2     1  UNL1        0.3587
     16 O          10.5262   37.7365    8.9573 O.2     1  UNL1       -0.2432
     17 C          12.4082   36.0844   10.3614 C.3     1  UNL1        0.2560
     18 O          12.6578   36.9160    9.2382 O.3     1  UNL1       -0.4403
     19 N          15.4076   43.9292    6.6505 N.pl3   1  UNL1       -0.3328
     20 H          15.1764   44.7157    6.1053 H       1  UNL1        0.1468
     21 C          16.7526   43.8877    7.2209 C.3     1  UNL1        0.0691
     22 C          17.7920   43.6557    6.1347 C.3     1  UNL1        0.0212
     23 C          18.0959   41.9944    8.1372 C.3     1  UNL1        0.0017
     24 C          16.8465   42.8335    8.3156 C.3     1  UNL1        0.0195
     25 C          10.4091   39.6525    6.6646 C.3     1  UNL1        0.1371
     26 C           9.3779   40.7441    6.9109 C.3     1  UNL1        0.1378
     27 C           8.4682   40.3406    8.0382 C.3     1  UNL1        0.0341
     28 C           7.1790   41.0156    7.6896 C.3     1  UNL1        0.0346
     29 C           7.3513   41.4174    6.2377 C.3     1  UNL1        0.1422
     30 O           8.5899   40.9405    5.7672 O.3     1  UNL1       -0.3543
@<TRIPOS>BOND
     1    23    24    1
     2    21    24    1
     3    21    22    1
     4    21    19    1
     5     2     8   ar
     6     3     9   ar
     7    25     9    1
     8    26    25    1
     9    26    27    1
    10    26    30    1
    11    27    28    1
    12    28    29    1
    13    29    30    1
    14     4    15    1
    15    15    18    1
    16    17    18    1
    17     5    12    1
    18     5     6   ar
    19    11    10    1
    20     6     3   ar
    21     7     1   ar
    22    19     1    1
    23     9     4   ar
    24    12    10   am
    25     1     2   ar
    26     3     8   ar
    27     4     5   ar
    28    15    16    2
    29    10    13    2
    30     6     7   ar
    31    19    20    1
    32    12    14    1
@<TRIPOS>MOLECULE
MolPort-004-979-229 CSSS00159754183 MCULE-9377558138 PubChem-45159487
 30 32 0 0 0
SMALL
GASTEIGER

@<TRIPOS>ATOM
      1 C          11.1685   41.2067    9.8267 C.ar    1  UNL1        0.0642
      2 C          10.5778   40.8421   11.0615 C.ar    1  UNL1        0.1147
      3 C           8.4976   41.6332   10.3188 C.ar    1  UNL1        0.1453
      4 C           6.8795   42.5751    9.2362 C.ar    1  UNL1        0.1514
      5 C           7.9955   42.5817    8.3939 C.ar    1  UNL1        0.0757
      6 C           9.0239   41.9906    9.1080 C.ar    1  UNL1        0.0505
      7 C          10.3753   41.8054    8.8338 C.ar    1  UNL1        0.0202
      8 N           9.2512   41.0676   11.2950 N.ar    1  UNL1       -0.2254
      9 N           7.1990   41.9735   10.4136 N.ar    1  UNL1       -0.3040
     10 C           7.3972   42.7563    5.9188 C.2     1  UNL1        0.2266
     11 C           7.7680   43.3445    4.6061 C.3     1  UNL1        0.0949
     12 N           8.0622   43.2043    7.1029 N.am    1  UNL1       -0.2825
     13 O           6.4608   41.9170    5.9775 O.2     1  UNL1       -0.2748
     14 H           8.6165   44.0142    7.0251 H       1  UNL1        0.1549
     15 C           5.5513   43.1370    8.9074 C.2     1  UNL1        0.3587
     16 O           4.6113   42.3703    8.5632 O.2     1  UNL1       -0.2432
     17 C           5.0735   45.2963    7.8255 C.3     1  UNL1        0.2560
     18 O           5.3370   44.5139    8.9803 O.3     1  UNL1       -0.4403
     19 N          12.5605   40.9844    9.5645 N.pl3   1  UNL1       -0.3328
     20 H          13.0406   41.6868    9.0691 H       1  UNL1        0.1468
     21 C          13.3309   39.8092    9.9661 C.3     1  UNL1        0.0691
     22 C          13.3204   39.6487   11.4788 C.3     1  UNL1        0.0212
     23 C          14.9677   41.1760    8.6693 C.3     1  UNL1        0.0017
     24 C          14.7519   39.8794    9.4237 C.3     1  UNL1        0.0195
     25 C           6.3620   41.8266   11.6002 C.3     1  UNL1        0.1371
     26 C           4.9971   41.2705   11.2215 C.3     1  UNL1        0.1378
     27 C           3.9157   42.0833   11.8780 C.3     1  UNL1        0.0341
     28 C           2.8164   41.0872   12.0736 C.3     1  UNL1        0.0346
     29 C           3.4911   39.7449   11.8681 C.3     1  UNL1        0.1422
     30 O           4.8695   39.9444   11.6606 O.3     1  UNL1       -0.3543
@<TRIPOS>BOND
     1    23    24    1
     2    21    24    1
     3    21    22    1
     4    21    19    1
     5     2     8   ar
     6     3     9   ar
     7    25     9    1
     8    26    25    1
     9    26    27    1
    10    26    30    1
    11    27    28    1
    12    28    29    1
    13    29    30    1
    14     4    15    1
    15    15    18    1
    16    17    18    1
    17     5    12    1
    18     5     6   ar
    19    11    10    1
    20     6     3   ar
    21     7     1   ar
    22    19     1    1
    23     9     4   ar
    24    12    10   am
    25     1     2   ar
    26     3     8   ar
    27     4     5   ar
    28    15    16    2
    29    10    13    2
    30     6     7   ar
    31    19    20    1
    32    12    14    1
@<TRIPOS>MOLECULE
MolPort-004-979-229 CSSS00159754183 MCULE-9377558138 PubChem-45159487
 30 32 0 0 0
SMALL
GASTEIGER

@<TRIPOS>ATOM
      1 C           6.9285   41.5715    8.1879 C.ar    1  UNL1        0.0642
      2 C           7.5706   40.9290    7.1009 C.ar    1  UNL1        0.1147
      3 C           9.4694   40.5491    8.4255 C.ar    1  UNL1        0.1453
      4 C          10.9710   40.5437    9.9821 C.ar    1  UNL1        0.1514
      5 C           9.8267   41.1424   10.5178 C.ar    1  UNL1        0.0757
      6 C           8.8832   41.1517    9.5045 C.ar    1  UNL1        0.0505
      7 C           7.6060   41.6957    9.4123 C.ar    1  UNL1        0.0202
      8 N           8.8364   40.4331    7.2312 N.ar    1  UNL1       -0.2254
      9 N          10.7316   40.1688    8.6966 N.ar    1  UNL1       -0.3040
     10 C           8.7984   41.3702   12.8428 C.2     1  UNL1        0.2266
     11 C           8.6407   42.2441   14.0336 C.3     1  UNL1        0.0949
     12 N           9.7284   41.7367   11.8201 N.am    1  UNL1       -0.2825
     13 O           8.1567   40.2890   12.7804 O.2     1  UNL1       -0.2748
     14 H          10.3590   42.4633   12.0287 H       1  UNL1        0.1549
     15 C          12.2518   40.3468   10.6952 C.2     1  UNL1        0.3587
     16 O          12.2572   39.8471   11.8529 O.2     1  UNL1       -0.2432
     17 C          14.6612   40.0023   10.3239 C.3     1  UNL1        0.2560
     18 O          13.4539   40.7106   10.0871 O.3     1  UNL1       -0.4403
     19 N           5.6027   42.1045    8.0697 N.pl3   1  UNL1       -0.3328
     20 H           5.0168   41.7008    7.3892 H       1  UNL1        0.1468
     21 C           5.0425   43.1928    8.8682 C.3     1  UNL1        0.0691
     22 C           3.6067   42.8859    9.2662 C.3     1  UNL1        0.0212
     23 C           3.7634   45.0243    7.7553 C.3     1  UNL1        0.0017
     24 C           5.1432   44.5188    8.1265 C.3     1  UNL1        0.0195
     25 C          11.6715   39.5868    7.7437 C.3     1  UNL1        0.1371
     26 C          11.9230   38.1226    8.0731 C.3     1  UNL1        0.1378
     27 C          11.0187   37.6900    9.1939 C.3     1  UNL1        0.0341
     28 C          11.8189   36.6300    9.8832 C.3     1  UNL1        0.0346
     29 C          13.2237   36.8158    9.3435 C.3     1  UNL1        0.1422
     30 O          13.2493   37.9350    8.4893 O.3     1  UNL1       -0.3543
@<TRIPOS>BOND
     1    23    24    1
     2    21    24    1
     3    21    22    1
     4    21    19    1
     5     2     8   ar
     6     3     9   ar
     7    25     9    1
     8    26    25    1
     9    26    27    1
    10    26    30    1
    11    27    28    1
    12    28    29    1
    13    29    30    1
    14     4    15    1
    15    15    18    1
    16    17    18    1
    17     5    12    1
    18     5     6   ar
    19    11    10    1
    20     6     3   ar
    21     7     1   ar
    22    19     1    1
    23     9     4   ar
    24    12    10   am
    25     1     2   ar
    26     3     8   ar
    27     4     5   ar
    28    15    16    2
    29    10    13    2
    30     6     7   ar
    31    19    20    1
    32    12    14    1
@<TRIPOS>MOLECULE
MolPort-004-979-229 CSSS00159754183 MCULE-9377558138 PubChem-45159487
 30 32 0 0 0
SMALL
GASTEIGER

@<TRIPOS>ATOM
      1 C          14.7239   43.7533    6.9090 C.ar    1  UNL1        0.0642
      2 C          14.0098   43.8663    5.6908 C.ar    1  UNL1        0.1147
      3 C          12.3319   42.4539    6.5242 C.ar    1  UNL1        0.1453
      4 C          11.1497   41.0618    7.6826 C.ar    1  UNL1        0.1514
      5 C          12.2291   41.4488    8.4828 C.ar    1  UNL1        0.0757
      6 C          12.9822   42.3257    7.7207 C.ar    1  UNL1        0.0505
      7 C          14.2033   42.9550    7.9411 C.ar    1  UNL1        0.0202
      8 N          12.8266   43.2084    5.5109 N.ar    1  UNL1       -0.2254
      9 N          11.2172   41.7010    6.4838 N.ar    1  UNL1       -0.3040
     10 C          13.5606   39.9691   10.0804 C.2     1  UNL1        0.2266
     11 C          13.5878   39.3212   11.4169 C.3     1  UNL1        0.0949
     12 N          12.5361   40.9208    9.7812 N.am    1  UNL1       -0.2825
     13 O          14.4752   39.7172    9.2529 O.2     1  UNL1       -0.2748
     14 H          11.9914   41.2432   10.5352 H       1  UNL1        0.1549
     15 C          10.0930   40.1023    8.0705 C.2     1  UNL1        0.3587
     16 O          10.3530   38.8699    8.1307 O.2     1  UNL1       -0.2432
     17 C           7.6872   40.2382    7.5652 C.3     1  UNL1        0.2560
     18 O           8.8097   40.5597    8.3725 O.3     1  UNL1       -0.4403
     19 N          15.9707   44.4306    7.1153 N.pl3   1  UNL1       -0.3328
     20 H          15.9294   45.3414    7.4868 H       1  UNL1        0.1468
     21 C          17.2973   43.8910    6.8239 C.3     1  UNL1        0.0691
     22 C          17.4983   43.7347    5.3242 C.3     1  UNL1        0.0212
     23 C          17.4821   42.7890    9.0556 C.3     1  UNL1        0.0017
     24 C          17.5215   42.5747    7.5557 C.3     1  UNL1        0.0195
     25 C          10.3444   41.5286    5.3268 C.3     1  UNL1        0.1371
     26 C          10.1284   40.0497    5.0406 C.3     1  UNL1        0.1378
     27 C          11.3389   39.4818    4.3528 C.3     1  UNL1        0.0341
     28 C          10.7647   38.3907    3.5051 C.3     1  UNL1        0.0346
     29 C           9.2755   38.6760    3.4916 C.3     1  UNL1        0.1422
     30 O           9.0248   39.8709    4.1934 O.3     1  UNL1       -0.3543
@<TRIPOS>BOND
     1    23    24    1
     2    21    24    1
     3    21    22    1
     4    21    19    1
     5     2     8   ar
     6     3     9   ar
     7    25     9    1
     8    26    25    1
     9    26    27    1
    10    26    30    1
    11    27    28    1
    12    28    29    1
    13    29    30    1
    14     4    15    1
    15    15    18    1
    16    17    18    1
    17     5    12    1
    18     5     6   ar
    19    11    10    1
    20     6     3   ar
    21     7     1   ar
    22    19     1    1
    23     9     4   ar
    24    12    10   am
    25     1     2   ar
    26     3     8   ar
    27     4     5   ar
    28    15    16    2
    29    10    13    2
    30     6     7   ar
    31    19    20    1
    32    12    14    1
@<TRIPOS>MOLECULE
MolPort-004-979-229 CSSS00159754183 MCULE-9377558138 PubChem-45159487
 30 32 0 0 0
SMALL
GASTEIGER

@<TRIPOS>ATOM
      1 C          14.4028   42.7790    6.3698 C.ar    1  UNL1        0.0642
      2 C          13.1520   42.8552    5.7091 C.ar    1  UNL1        0.1147
      3 C          12.1441   41.6357    7.4416 C.ar    1  UNL1        0.1453
      4 C          11.7290   40.4236    9.1840 C.ar    1  UNL1        0.1514
      5 C          13.0776   40.7871    9.2486 C.ar    1  UNL1        0.0757
      6 C          13.3289   41.5477    8.1193 C.ar    1  UNL1        0.0505
      7 C          14.4940   42.0992    7.5958 C.ar    1  UNL1        0.0202
      8 N          12.0400   42.2753    6.2496 N.ar    1  UNL1       -0.2254
      9 N          11.1620   40.9665    8.0732 N.ar    1  UNL1       -0.3040
     10 C          14.9115   39.2270   10.0961 C.2     1  UNL1        0.2266
     11 C          15.6333   38.7180   11.2905 C.3     1  UNL1        0.0949
     12 N          14.0170   40.3343   10.2342 N.am    1  UNL1       -0.2825
     13 O          15.1442   38.7164    8.9693 O.2     1  UNL1       -0.2748
     14 H          14.0488   40.8315   11.0833 H       1  UNL1        0.1549
     15 C          11.0195   39.5760   10.1668 C.2     1  UNL1        0.3587
     16 O          11.2662   38.3409   10.2270 O.2     1  UNL1       -0.2432
     17 C          10.4316   41.1418   11.9736 C.3     1  UNL1        0.2560
     18 O          10.0796   40.1422   11.0290 O.3     1  UNL1       -0.4403
     19 N          15.5832   43.3755    5.8160 N.pl3   1  UNL1       -0.3328
     20 H          15.7791   43.1860    4.8699 H       1  UNL1        0.1468
     21 C          16.5220   44.2393    6.5292 C.3     1  UNL1        0.0691
     22 C          17.9094   44.1538    5.9113 C.3     1  UNL1        0.0212
     23 C          17.8811   43.2769    8.3880 C.3     1  UNL1        0.0017
     24 C          16.5518   43.9011    8.0135 C.3     1  UNL1        0.0195
     25 C           9.8029   40.7750    7.5768 C.3     1  UNL1        0.1371
     26 C           8.8962   41.8945    8.0669 C.3     1  UNL1        0.1378
     27 C           9.6910   42.8707    8.8894 C.3     1  UNL1        0.0341
     28 C           8.6804   43.3963    9.8595 C.3     1  UNL1        0.0346
     29 C           7.5253   42.4192    9.7578 C.3     1  UNL1        0.1422
     30 O           7.8736   41.3778    8.8762 O.3     1  UNL1       -0.3543
@<TRIPOS>BOND
     1    23    24    1
     2    21    24    1
     3    21    22    1
     4    21    19    1
     5     2     8   ar
     6     3     9   ar
     7    25     9    1
     8    26    25    1
     9    26    27    1
    10    26    30    1
    11    27    28    1
    12    28    29    1
    13    29    30    1
    14     4    15    1
    15    15    18    1
    16    17    18    1
    17     5    12    1
    18     5     6   ar
    19    11    10    1
    20     6     3   ar
    21     7     1   ar
    22    19     1    1
    23     9     4   ar
    24    12    10   am
    25     1     2   ar
    26     3     8   ar
    27     4     5   ar
    28    15    16    2
    29    10    13    2
    30     6     7   ar
    31    19    20    1
    32    12    14    1
@<TRIPOS>MOLECULE
MolPort-004-979-229 CSSS00159754183 MCULE-9377558138 PubChem-45159487
 30 32 0 0 0
SMALL
GASTEIGER

@<TRIPOS>ATOM
      1 C          10.7152   40.5011    7.6036 C.ar    1  UNL1        0.0642
      2 C          10.7193   39.1879    8.1347 C.ar    1  UNL1        0.1147
      3 C          12.9349   39.4678    8.8537 C.ar    1  UNL1        0.1453
      4 C          14.9513   40.1674    9.2040 C.ar    1  UNL1        0.1514
      5 C          14.2530   41.2153    8.5964 C.ar    1  UNL1        0.0757
      6 C          12.9714   40.7450    8.3654 C.ar    1  UNL1        0.0505
      7 C          11.8717   41.2913    7.7112 C.ar    1  UNL1        0.0202
      8 N          11.8322   38.6849    8.7459 N.ar    1  UNL1       -0.2254
      9 N          14.1224   39.1019    9.3707 N.ar    1  UNL1       -0.3040
     10 C          14.8738   42.9699    6.8497 C.2     1  UNL1        0.2266
     11 C          15.7198   44.1527    6.5467 C.3     1  UNL1        0.0949
     12 N          14.8197   42.4687    8.1880 N.am    1  UNL1       -0.2825
     13 O          14.1694   42.4640    5.9374 O.2     1  UNL1       -0.2748
     14 H          15.2066   43.0356    8.8937 H       1  UNL1        0.1549
     15 C          16.3747   40.2016    9.6048 C.2     1  UNL1        0.3587
     16 O          17.2119   40.8288    8.9007 O.2     1  UNL1       -0.2432
     17 C          18.0686   38.9319   10.8618 C.3     1  UNL1        0.2560
     18 O          16.7912   39.5432   10.7624 O.3     1  UNL1       -0.4403
     19 N           9.5594   41.0453    6.9526 N.pl3   1  UNL1       -0.3328
     20 H           9.5977   41.1347    5.9729 H       1  UNL1        0.1468
     21 C           8.3295   41.4794    7.6122 C.3     1  UNL1        0.0691
     22 C           7.5842   42.4892    6.7527 C.3     1  UNL1        0.0212
     23 C           7.4606   41.7735    9.9332 C.3     1  UNL1        0.0017
     24 C           8.6236   42.0374    8.9980 C.3     1  UNL1        0.0195
     25 C          14.4581   37.7781    9.8857 C.3     1  UNL1        0.1371
     26 C          14.8485   36.8486    8.7459 C.3     1  UNL1        0.1378
     27 C          14.5222   35.4273    9.1129 C.3     1  UNL1        0.0341
     28 C          15.5568   34.6411    8.3711 C.3     1  UNL1        0.0346
     29 C          16.5888   35.6754    7.9658 C.3     1  UNL1        0.1422
     30 O          16.2273   36.9270    8.5002 O.3     1  UNL1       -0.3543
@<TRIPOS>BOND
     1    23    24    1
     2    21    24    1
     3    21    22    1
     4    21    19    1
     5     2     8   ar
     6     3     9   ar
     7    25     9    1
     8    26    25    1
     9    26    27    1
    10    26    30    1
    11    27    28    1
    12    28    29    1
    13    29    30    1
    14     4    15    1
    15    15    18    1
    16    17    18    1
    17     5    12    1
    18     5     6   ar
    19    11    10    1
    20     6     3   ar
    21     7     1   ar
    22    19     1    1
    23     9     4   ar
    24    12    10   am
    25     1     2   ar
    26     3     8   ar
    27     4     5   ar
    28    15    16    2
    29    10    13    2
    30     6     7   ar
    31    19    20    1
    32    12    14    1
@<TRIPOS>MOLECULE
MolPort-004-979-229 CSSS00159754183 MCULE-9377558138 PubChem-45159487
 30 32 0 0 0
SMALL
GASTEIGER

@<TRIPOS>ATOM
      1 C          14.3557   42.5925    7.2378 C.ar    1  UNL1        0.0642
      2 C          13.2868   42.7257    6.3179 C.ar    1  UNL1        0.1147
      3 C          12.1505   40.9554    7.3567 C.ar    1  UNL1        0.1453
      4 C          11.5800   39.2514    8.5605 C.ar    1  UNL1        0.1514
      5 C          12.7974   39.7202    9.0635 C.ar    1  UNL1        0.0757
      6 C          13.1545   40.7989    8.2724 C.ar    1  UNL1        0.0505
      7 C          14.2922   41.5986    8.2285 C.ar    1  UNL1        0.0202
      8 N          12.2011   41.8998    6.3840 N.ar    1  UNL1       -0.2254
      9 N          11.1852   40.0316    7.5185 N.ar    1  UNL1       -0.3040
     10 C          14.7103   38.2689    9.9291 C.2     1  UNL1        0.2266
     11 C          15.2350   37.4905   11.0804 C.3     1  UNL1        0.0949
     12 N          13.5616   39.1015   10.1086 N.am    1  UNL1       -0.2825
     13 O          15.3207   38.2322    8.8288 O.2     1  UNL1       -0.2748
     14 H          13.2682   39.2652   11.0340 H       1  UNL1        0.1549
     15 C          10.8302   38.0845    9.0740 C.2     1  UNL1        0.3587
     16 O           9.8403   37.6400    8.4318 O.2     1  UNL1       -0.2432
     17 C          11.7351   36.1513   10.3012 C.3     1  UNL1        0.2560
     18 O          11.2189   37.4733   10.2668 O.3     1  UNL1       -0.4403
     19 N          15.5070   43.4453    7.1812 N.pl3   1  UNL1       -0.3328
     20 H          16.0601   43.5054    7.9934 H       1  UNL1        0.1468
     21 C          15.9335   44.2333    6.0266 C.3     1  UNL1        0.0691
     22 C          15.1345   43.8529    4.7893 C.3     1  UNL1        0.0212
     23 C          18.1145   43.5619    7.0372 C.3     1  UNL1        0.0017
     24 C          17.4303   44.0849    5.7901 C.3     1  UNL1        0.0195
     25 C          10.0225   39.8510    6.6548 C.3     1  UNL1        0.1371
     26 C          10.4145   39.1089    5.3855 C.3     1  UNL1        0.1378
     27 C          10.4079   40.0569    4.2184 C.3     1  UNL1        0.0341
     28 C          10.0518   39.1714    3.0661 C.3     1  UNL1        0.0346
     29 C           9.5250   37.9078    3.7182 C.3     1  UNL1        0.1422
     30 O           9.4974   38.0825    5.1152 O.3     1  UNL1       -0.3543
@<TRIPOS>BOND
     1    23    24    1
     2    21    24    1
     3    21    22    1
     4    21    19    1
     5     2     8   ar
     6     3     9   ar
     7    25     9    1
     8    26    25    1
     9    26    27    1
    10    26    30    1
    11    27    28    1
    12    28    29    1
    13    29    30    1
    14     4    15    1
    15    15    18    1
    16    17    18    1
    17     5    12    1
    18     5     6   ar
    19    11    10    1
    20     6     3   ar
    21     7     1   ar
    22    19     1    1
    23     9     4   ar
    24    12    10   am
    25     1     2   ar
    26     3     8   ar
    27     4     5   ar
    28    15    16    2
    29    10    13    2
    30     6     7   ar
    31    19    20    1
    32    12    14    1
@<TRIPOS>MOLECULE
MolPort-004-979-229 CSSS00159754183 MCULE-9377558138 PubChem-45159487
 30 32 0 0 0
SMALL
GASTEIGER

@<TRIPOS>ATOM
      1 C           7.3393   43.0055    8.9878 C.ar    1  UNL1        0.0642
      2 C           7.9522   42.9566    7.7116 C.ar    1  UNL1        0.1147
      3 C           9.6713   41.6108    8.5705 C.ar    1  UNL1        0.1453
      4 C          11.0394   40.5145    9.8372 C.ar    1  UNL1        0.1514
      5 C           9.9641   40.9090   10.6391 C.ar    1  UNL1        0.0757
      6 C           9.1080   41.6218    9.8169 C.ar    1  UNL1        0.0505
      7 C           7.9384   42.3330   10.0659 C.ar    1  UNL1        0.0202
      8 N           9.1152   42.2664    7.5210 N.ar    1  UNL1       -0.2254
      9 N          10.8382   40.9403    8.5611 N.ar    1  UNL1       -0.3040
     10 C           8.8025   41.1713   12.8967 C.2     1  UNL1        0.2266
     11 C           8.9649   41.1220   14.3724 C.3     1  UNL1        0.0949
     12 N           9.8645   40.7112   12.0568 N.am    1  UNL1       -0.2825
     13 O           7.7092   41.5595   12.4080 O.2     1  UNL1       -0.2748
     14 H          10.5942   40.2130   12.4911 H       1  UNL1        0.1549
     15 C          12.2209   39.7531   10.2977 C.2     1  UNL1        0.3587
     16 O          13.2528   40.3657   10.6846 O.2     1  UNL1       -0.2432
     17 C          11.2075   37.6202    9.6008 C.3     1  UNL1        0.2560
     18 O          12.1935   38.3579   10.3070 O.3     1  UNL1       -0.4403
     19 N           6.1220   43.7298    9.2100 N.pl3   1  UNL1       -0.3328
     20 H           6.2003   44.6242    9.6139 H       1  UNL1        0.1468
     21 C           4.7752   43.2600    8.8910 C.3     1  UNL1        0.0691
     22 C           3.9229   44.3961    8.3462 C.3     1  UNL1        0.0212
     23 C           3.0120   41.6755    9.6716 C.3     1  UNL1        0.0017
     24 C           4.1251   42.6087   10.1041 C.3     1  UNL1        0.0195
     25 C          11.7444   40.8192    7.4233 C.3     1  UNL1        0.1371
     26 C          12.7576   41.9545    7.4286 C.3     1  UNL1        0.1378
     27 C          12.8132   42.5941    6.0688 C.3     1  UNL1        0.0341
     28 C          14.2265   43.0774    5.9806 C.3     1  UNL1        0.0346
     29 C          14.9374   42.3527    7.1069 C.3     1  UNL1        0.1422
     30 O          14.0377   41.4672    7.7309 O.3     1  UNL1       -0.3543
@<TRIPOS>BOND
     1    23    24    1
     2    21    24    1
     3    21    22    1
     4    21    19    1
     5     2     8   ar
     6     3     9   ar
     7    25     9    1
     8    26    25    1
     9    26    27    1
    10    26    30    1
    11    27    28    1
    12    28    29    1
    13    29    30    1
    14     4    15    1
    15    15    18    1
    16    17    18    1
    17     5    12    1
    18     5     6   ar
    19    11    10    1
    20     6     3   ar
    21     7     1   ar
    22    19     1    1
    23     9     4   ar
    24    12    10   am
    25     1     2   ar
    26     3     8   ar
    27     4     5   ar
    28    15    16    2
    29    10    13    2
    30     6     7   ar
    31    19    20    1
    32    12    14    1
