@<TRIPOS>MOLECULE
MolPort-020-292-513 MCULE-4185244807 PubChem-110264981
 32 35 0 0 0
SMALL
GASTEIGER

@<TRIPOS>ATOM
      1 C           7.4454   41.7714   11.2840 C.ar    1  UNL1        0.0528
      2 C           8.5023   41.4925   10.4144 C.ar    1  UNL1        0.0294
      3 C           9.7391   41.0961   10.9304 C.ar    1  UNL1        0.0611
      4 C           8.8971   41.2503   13.1463 C.ar    1  UNL1        0.0602
      5 C           7.6487   41.6487   12.6648 C.ar    1  UNL1        0.0294
      6 C           9.1204   41.1165   14.6096 C.3     1  UNL1        0.0521
      7 N           9.9087   40.9856   12.2777 N.ar    1  UNL1       -0.2538
      8 C          10.8649   40.8037    9.9949 C.3     1  UNL1        0.0602
      9 C          12.0611   40.2226   10.7523 C.3     1  UNL1        0.0094
     10 C          13.2071   39.9238    9.7881 C.3     1  UNL1        0.0219
     11 C          13.6119   41.1956    9.0498 C.3     1  UNL1        0.0934
     12 C          11.2716   42.0651    9.2331 C.3     1  UNL1        0.0993
     13 C          12.4127   42.0342    6.9919 C.2     1  UNL1        0.2317
     14 N          12.4381   41.7774    8.4039 N.am    1  UNL1       -0.2788
     15 O          11.3771   42.5104    6.4538 O.2     1  UNL1       -0.2744
     16 C          13.6143   41.7747    6.1409 C.3     1  UNL1        0.1314
     17 C          14.6016   42.8808    6.2881 C.ar    1  UNL1        0.0748
     18 C          14.4434   44.1079    5.6438 C.ar    1  UNL1        0.0517
     19 C          16.4274   43.8893    7.1008 C.ar    1  UNL1        0.0883
     20 C          17.6747   44.0563    7.8913 C.3     1  UNL1        0.0594
     21 N          15.6904   42.7622    7.0961 N.ar    1  UNL1       -0.2465
     22 S          15.7494   45.0618    6.1163 S.2     1  UNL1       -0.0706
     23 N           6.1860   42.1787   10.7304 N.pl3   1  UNL1       -0.2825
     24 H           5.3908   42.0131   11.2867 H       1  UNL1        0.1551
     25 C           3.5451   45.1621    7.8794 C.3     1  UNL1        0.0522
     26 C           4.6926   44.2353    8.0606 C.ar    1  UNL1        0.0634
     27 C           5.5438   43.9624    6.9921 C.ar    1  UNL1        0.0296
     28 C           6.6075   43.0867    7.2023 C.ar    1  UNL1        0.0634
     29 C           5.9542   42.7995    9.4588 C.ar    1  UNL1        0.2200
     30 C           7.5393   42.7690    6.0892 C.3     1  UNL1        0.0522
     31 N           6.7927   42.5237    8.4250 N.ar    1  UNL1       -0.2179
     32 N           4.9097   43.6519    9.2679 N.ar    1  UNL1       -0.2179
@<TRIPOS>BOND
     1    25    26    1
     2    26    32   ar
     3    27    28   ar
     4    29    31   ar
     5    29    23    1
     6     2     3   ar
     7     4     7   ar
     8     5     1   ar
     9     6     4    1
    10     8     3    1
    11     8     9    1
    12     9    10    1
    13    10    11    1
    14    11    14    1
    15    12    14    1
    16    12     8    1
    17    16    13    1
    18    16    17    1
    19    17    21   ar
    20    18    22   ar
    21    19    22   ar
    22    20    19    1
    23    30    28    1
    24    23     1    1
    25    14    13   am
    26    26    27   ar
    27    28    31   ar
    28    29    32   ar
    29     1     2   ar
    30     3     7   ar
    31     4     5   ar
    32    13    15    2
    33    17    18   ar
    34    19    21   ar
    35    23    24    1
@<TRIPOS>MOLECULE
MolPort-020-292-513 MCULE-4185244807 PubChem-110264981
 32 35 0 0 0
SMALL
GASTEIGER

@<TRIPOS>ATOM
      1 C          16.1960   41.8739    8.2780 C.ar    1  UNL1        0.0528
      2 C          14.8723   41.4324    8.3390 C.ar    1  UNL1        0.0294
      3 C          13.8753   42.1321    7.6537 C.ar    1  UNL1        0.0611
      4 C          15.4786   43.6925    6.8549 C.ar    1  UNL1        0.0602
      5 C          16.4990   43.0174    7.5274 C.ar    1  UNL1        0.0294
      6 C          15.7920   44.9055    6.0554 C.3     1  UNL1        0.0521
      7 N          14.1985   43.2413    6.9317 N.ar    1  UNL1       -0.2538
      8 C          12.4624   41.6564    7.7269 C.3     1  UNL1        0.0602
      9 C          12.2013   40.9375    9.0526 C.3     1  UNL1        0.0094
     10 C          10.7534   40.4566    9.1208 C.3     1  UNL1        0.0219
     11 C          10.4562   39.5303    7.9460 C.3     1  UNL1        0.0934
     12 C          12.1422   40.7402    6.5459 C.3     1  UNL1        0.0993
     13 C           9.8194   40.3751    5.6532 C.2     1  UNL1        0.2317
     14 N          10.7914   40.2075    6.6960 N.am    1  UNL1       -0.2788
     15 O          10.1255   40.9883    4.5954 O.2     1  UNL1       -0.2744
     16 C           8.4441   39.8033    5.7841 C.3     1  UNL1        0.1314
     17 C           7.5740   40.7222    6.5705 C.ar    1  UNL1        0.0748
     18 C           6.9078   40.3082    7.7240 C.ar    1  UNL1        0.0517
     19 C           6.6161   42.6782    7.0877 C.ar    1  UNL1        0.0883
     20 C           6.2643   44.1170    6.9659 C.3     1  UNL1        0.0594
     21 N           7.4194   42.0292    6.2234 N.ar    1  UNL1       -0.2465
     22 S           6.0850   41.6587    8.3052 S.2     1  UNL1       -0.0706
     23 N          17.2012   41.1402    8.9919 N.pl3   1  UNL1       -0.2825
     24 H          18.1224   41.4804    8.9215 H       1  UNL1        0.1551
     25 C          14.4078   38.4257   11.9638 C.3     1  UNL1        0.0522
     26 C          15.6857   38.6390   11.2359 C.ar    1  UNL1        0.0634
     27 C          16.7112   37.7015   11.3381 C.ar    1  UNL1        0.0296
     28 C          17.8947   37.9389   10.6413 C.ar    1  UNL1        0.0634
     29 C          17.0164   39.9676    9.7964 C.ar    1  UNL1        0.2200
     30 C          19.0131   36.9640   10.7230 C.3     1  UNL1        0.0522
     31 N          18.0257   39.0615    9.8872 N.ar    1  UNL1       -0.2179
     32 N          15.8550   39.7499   10.4728 N.ar    1  UNL1       -0.2179
@<TRIPOS>BOND
     1    25    26    1
     2    26    32   ar
     3    27    28   ar
     4    29    31   ar
     5    29    23    1
     6     2     3   ar
     7     4     7   ar
     8     5     1   ar
     9     6     4    1
    10     8     3    1
    11     8     9    1
    12     9    10    1
    13    10    11    1
    14    11    14    1
    15    12    14    1
    16    12     8    1
    17    16    13    1
    18    16    17    1
    19    17    21   ar
    20    18    22   ar
    21    19    22   ar
    22    20    19    1
    23    30    28    1
    24    23     1    1
    25    14    13   am
    26    26    27   ar
    27    28    31   ar
    28    29    32   ar
    29     1     2   ar
    30     3     7   ar
    31     4     5   ar
    32    13    15    2
    33    17    18   ar
    34    19    21   ar
    35    23    24    1
@<TRIPOS>MOLECULE
MolPort-020-292-513 MCULE-4185244807 PubChem-110264981
 32 35 0 0 0
SMALL
GASTEIGER

@<TRIPOS>ATOM
      1 C          15.7102   41.8688    8.0759 C.ar    1  UNL1        0.0528
      2 C          14.4492   41.2919    8.2437 C.ar    1  UNL1        0.0294
      3 C          13.3559   41.7957    7.5339 C.ar    1  UNL1        0.0611
      4 C          14.7404   43.4268    6.5015 C.ar    1  UNL1        0.0602
      5 C          15.8538   42.9485    7.1949 C.ar    1  UNL1        0.0294
      6 C          14.8846   44.5711    5.5640 C.3     1  UNL1        0.0521
      7 N          13.5244   42.8471    6.6840 N.ar    1  UNL1       -0.2538
      8 C          12.0107   41.1765    7.7215 C.3     1  UNL1        0.0602
      9 C          12.1427   39.7402    8.2332 C.3     1  UNL1        0.0094
     10 C          10.7625   39.1149    8.4251 C.3     1  UNL1        0.0219
     11 C           9.9907   39.1422    7.1097 C.3     1  UNL1        0.0934
     12 C          11.2164   41.2118    6.4159 C.3     1  UNL1        0.0993
     13 C           8.7040   41.1623    6.3098 C.2     1  UNL1        0.2317
     14 N           9.9495   40.5098    6.5985 N.am    1  UNL1       -0.2788
     15 O           8.6942   42.3530    5.8965 O.2     1  UNL1       -0.2744
     16 C           7.4037   40.4399    6.4613 C.3     1  UNL1        0.1314
     17 C           6.7389   40.8322    7.7357 C.ar    1  UNL1        0.0748
     18 C           7.4606   41.2777    8.8431 C.ar    1  UNL1        0.0517
     19 C           5.0020   41.2348    9.0893 C.ar    1  UNL1        0.0883
     20 C           3.5839   41.3239    9.5246 C.3     1  UNL1        0.0594
     21 N           5.3844   40.8150    7.8682 N.ar    1  UNL1       -0.2465
     22 S           6.3240   41.6460   10.0311 S.2     1  UNL1       -0.0706
     23 N          16.8166   41.3354    8.8174 N.pl3   1  UNL1       -0.2825
     24 H          17.6687   41.8227    8.7410 H       1  UNL1        0.1551
     25 C          19.1279   37.4098   10.6203 C.3     1  UNL1        0.0522
     26 C          17.9179   38.2688   10.5411 C.ar    1  UNL1        0.0634
     27 C          16.7822   37.9433   11.2793 C.ar    1  UNL1        0.0296
     28 C          15.6675   38.7735   11.1765 C.ar    1  UNL1        0.0634
     29 C          16.8223   40.1731    9.6572 C.ar    1  UNL1        0.2200
     30 C          14.4358   38.4623   11.9475 C.3     1  UNL1        0.0522
     31 N          15.7069   39.8674   10.3716 N.ar    1  UNL1       -0.2179
     32 N          17.9185   39.3704    9.7464 N.ar    1  UNL1       -0.2179
@<TRIPOS>BOND
     1    25    26    1
     2    26    32   ar
     3    27    28   ar
     4    29    31   ar
     5    29    23    1
     6     2     3   ar
     7     4     7   ar
     8     5     1   ar
     9     6     4    1
    10     8     3    1
    11     8     9    1
    12     9    10    1
    13    10    11    1
    14    11    14    1
    15    12    14    1
    16    12     8    1
    17    16    13    1
    18    16    17    1
    19    17    21   ar
    20    18    22   ar
    21    19    22   ar
    22    20    19    1
    23    30    28    1
    24    23     1    1
    25    14    13   am
    26    26    27   ar
    27    28    31   ar
    28    29    32   ar
    29     1     2   ar
    30     3     7   ar
    31     4     5   ar
    32    13    15    2
    33    17    18   ar
    34    19    21   ar
    35    23    24    1
@<TRIPOS>MOLECULE
MolPort-020-292-513 MCULE-4185244807 PubChem-110264981
 32 35 0 0 0
SMALL
GASTEIGER

@<TRIPOS>ATOM
      1 C          14.9699   39.8744    9.7434 C.ar    1  UNL1        0.0528
      2 C          13.7560   40.5602    9.6598 C.ar    1  UNL1        0.0294
      3 C          12.5945   39.9802   10.1771 C.ar    1  UNL1        0.0611
      4 C          13.8192   38.0603   10.8533 C.ar    1  UNL1        0.0602
      5 C          14.9982   38.6103   10.3468 C.ar    1  UNL1        0.0294
      6 C          13.8410   36.7204   11.4961 C.3     1  UNL1        0.0521
      7 N          12.6512   38.7492   10.7582 N.ar    1  UNL1       -0.2538
      8 C          11.3002   40.7176   10.0805 C.3     1  UNL1        0.0602
      9 C          11.4657   41.9953    9.2544 C.3     1  UNL1        0.0094
     10 C          10.1370   42.7422    9.1580 C.3     1  UNL1        0.0219
     11 C           9.6238   43.0749   10.5553 C.3     1  UNL1        0.0934
     12 C          10.7624   41.0435   11.4738 C.3     1  UNL1        0.0993
     13 C           8.3287   41.4352   11.9732 C.2     1  UNL1        0.2317
     14 N           9.5533   41.8523   11.3513 N.am    1  UNL1       -0.2788
     15 O           8.2870   40.3611   12.6314 O.2     1  UNL1       -0.2744
     16 C           7.0946   42.2742   11.8817 C.3     1  UNL1        0.1314
     17 C           6.2239   41.7949   10.7716 C.ar    1  UNL1        0.0748
     18 C           4.8353   41.7354   10.8899 C.ar    1  UNL1        0.0517
     19 C           5.7735   41.0595    8.7059 C.ar    1  UNL1        0.0883
     20 C           6.0355   40.6107    7.3136 C.3     1  UNL1        0.0594
     21 N           6.7408   41.4295    9.5667 N.ar    1  UNL1       -0.2465
     22 S           4.2578   41.1830    9.4066 S.2     1  UNL1       -0.0706
     23 N          16.1481   40.4895    9.2031 N.pl3   1  UNL1       -0.2825
     24 H          17.0057   40.0603    9.4255 H       1  UNL1        0.1551
     25 C          18.6475   44.3446    7.5016 C.3     1  UNL1        0.0522
     26 C          17.4053   43.5298    7.5404 C.ar    1  UNL1        0.0634
     27 C          16.3021   43.9037    6.7763 C.ar    1  UNL1        0.0296
     28 C          15.1556   43.1139    6.8415 C.ar    1  UNL1        0.0634
     29 C          16.2182   41.6587    8.3758 C.ar    1  UNL1        0.2200
     30 C          13.9568   43.4773    6.0420 C.3     1  UNL1        0.0522
     31 N          15.1339   42.0118    7.6358 N.ar    1  UNL1       -0.2179
     32 N          17.3448   42.4215    8.3235 N.ar    1  UNL1       -0.2179
@<TRIPOS>BOND
     1    25    26    1
     2    26    32   ar
     3    27    28   ar
     4    29    31   ar
     5    29    23    1
     6     2     3   ar
     7     4     7   ar
     8     5     1   ar
     9     6     4    1
    10     8     3    1
    11     8     9    1
    12     9    10    1
    13    10    11    1
    14    11    14    1
    15    12    14    1
    16    12     8    1
    17    16    13    1
    18    16    17    1
    19    17    21   ar
    20    18    22   ar
    21    19    22   ar
    22    20    19    1
    23    30    28    1
    24    23     1    1
    25    14    13   am
    26    26    27   ar
    27    28    31   ar
    28    29    32   ar
    29     1     2   ar
    30     3     7   ar
    31     4     5   ar
    32    13    15    2
    33    17    18   ar
    34    19    21   ar
    35    23    24    1
@<TRIPOS>MOLECULE
MolPort-020-292-513 MCULE-4185244807 PubChem-110264981
 32 35 0 0 0
SMALL
GASTEIGER

@<TRIPOS>ATOM
      1 C          16.8496   41.8097    8.5124 C.ar    1  UNL1        0.0528
      2 C          15.5570   41.2981    8.3767 C.ar    1  UNL1        0.0294
      3 C          14.6415   41.9395    7.5379 C.ar    1  UNL1        0.0611
      4 C          16.2645   43.5793    6.9720 C.ar    1  UNL1        0.0602
      5 C          17.2038   42.9637    7.8013 C.ar    1  UNL1        0.0294
      6 C          16.6327   44.8031    6.2132 C.3     1  UNL1        0.0521
      7 N          15.0130   43.0606    6.8587 N.ar    1  UNL1       -0.2538
      8 C          13.2608   41.3890    7.4012 C.3     1  UNL1        0.0602
      9 C          12.2433   42.5181    7.2218 C.3     1  UNL1        0.0094
     10 C          10.8341   41.9466    7.0800 C.3     1  UNL1        0.0219
     11 C          10.4866   41.1071    8.3052 C.3     1  UNL1        0.0934
     12 C          12.9028   40.5296    8.6137 C.3     1  UNL1        0.0993
     13 C          11.1841   38.6940    8.5638 C.2     1  UNL1        0.2317
     14 N          11.5151   40.0895    8.5049 N.am    1  UNL1       -0.2788
     15 O          12.0935   37.8334    8.7085 O.2     1  UNL1       -0.2744
     16 C           9.7626   38.2366    8.4877 C.3     1  UNL1        0.1314
     17 C           9.1347   38.7067    7.2209 C.ar    1  UNL1        0.0748
     18 C           7.9190   39.3905    7.2039 C.ar    1  UNL1        0.0517
     19 C           9.0120   39.0551    5.0130 C.ar    1  UNL1        0.0883
     20 C           9.4211   39.0133    3.5849 C.3     1  UNL1        0.0594
     21 N           9.7406   38.5277    6.0153 N.ar    1  UNL1       -0.2465
     22 S           7.6084   39.7625    5.5902 S.2     1  UNL1       -0.0706
     23 N          17.7706   41.1349    9.3812 N.pl3   1  UNL1       -0.2825
     24 H          18.6144   41.6047    9.5723 H       1  UNL1        0.1551
     25 C          15.0045   37.9637   11.8903 C.3     1  UNL1        0.0522
     26 C          16.2844   38.3045   11.2164 C.ar    1  UNL1        0.0634
     27 C          17.3269   37.3807   11.1920 C.ar    1  UNL1        0.0296
     28 C          18.5117   37.7391   10.5513 C.ar    1  UNL1        0.0634
     29 C          17.6015   39.8537   10.0028 C.ar    1  UNL1        0.2200
     30 C          19.6481   36.7829   10.5021 C.3     1  UNL1        0.0522
     31 N          18.6275   38.9624    9.9715 N.ar    1  UNL1       -0.2179
     32 N          16.4386   39.5182   10.6266 N.ar    1  UNL1       -0.2179
@<TRIPOS>BOND
     1    25    26    1
     2    26    32   ar
     3    27    28   ar
     4    29    31   ar
     5    29    23    1
     6     2     3   ar
     7     4     7   ar
     8     5     1   ar
     9     6     4    1
    10     8     3    1
    11     8     9    1
    12     9    10    1
    13    10    11    1
    14    11    14    1
    15    12    14    1
    16    12     8    1
    17    16    13    1
    18    16    17    1
    19    17    21   ar
    20    18    22   ar
    21    19    22   ar
    22    20    19    1
    23    30    28    1
    24    23     1    1
    25    14    13   am
    26    26    27   ar
    27    28    31   ar
    28    29    32   ar
    29     1     2   ar
    30     3     7   ar
    31     4     5   ar
    32    13    15    2
    33    17    18   ar
    34    19    21   ar
    35    23    24    1
@<TRIPOS>MOLECULE
MolPort-020-292-513 MCULE-4185244807 PubChem-110264981
 32 35 0 0 0
SMALL
GASTEIGER

@<TRIPOS>ATOM
      1 C          15.6299   41.9668    8.0052 C.ar    1  UNL1        0.0528
      2 C          14.3870   41.3378    7.9029 C.ar    1  UNL1        0.0294
      3 C          13.3978   41.8853    7.0814 C.ar    1  UNL1        0.0611
      4 C          14.8503   43.6619    6.4671 C.ar    1  UNL1        0.0602
      5 C          15.8606   43.1422    7.2785 C.ar    1  UNL1        0.0294
      6 C          15.0876   44.9077    5.6920 C.3     1  UNL1        0.0521
      7 N          13.6496   43.0298    6.3863 N.ar    1  UNL1       -0.2538
      8 C          12.0708   41.2095    6.9804 C.3     1  UNL1        0.0602
      9 C          11.7713   40.8187    5.5313 C.3     1  UNL1        0.0094
     10 C          10.4136   40.1257    5.4370 C.3     1  UNL1        0.0219
     11 C           9.3215   41.0436    5.9769 C.3     1  UNL1        0.0934
     12 C          10.9662   42.1096    7.5342 C.3     1  UNL1        0.0993
     13 C           8.7832   41.2451    8.4357 C.2     1  UNL1        0.2317
     14 N           9.6699   41.4703    7.3296 N.am    1  UNL1       -0.2788
     15 O           9.1194   41.5973    9.5983 O.2     1  UNL1       -0.2744
     16 C           7.4396   40.6222    8.2303 C.3     1  UNL1        0.1314
     17 C           6.3616   41.6080    8.5236 C.ar    1  UNL1        0.0748
     18 C           5.4241   41.4039    9.5362 C.ar    1  UNL1        0.0517
     19 C           5.2380   43.5301    8.2904 C.ar    1  UNL1        0.0883
     20 C           4.8859   44.8640    7.7378 C.3     1  UNL1        0.0594
     21 N           6.2640   42.7820    7.8417 N.ar    1  UNL1       -0.2465
     22 S           4.4329   42.7664    9.5443 S.2     1  UNL1       -0.0706
     23 N          16.6283   41.3867    8.8568 N.pl3   1  UNL1       -0.2825
     24 H          17.4987   41.8459    8.8844 H       1  UNL1        0.1551
     25 C          18.5257   37.2483   10.6669 C.3     1  UNL1        0.0522
     26 C          17.3968   38.2085   10.5588 C.ar    1  UNL1        0.0634
     27 C          16.2090   37.9684   11.2461 C.ar    1  UNL1        0.0296
     28 C          15.1734   38.8922   11.1175 C.ar    1  UNL1        0.0634
     29 C          16.5021   40.2141    9.6724 C.ar    1  UNL1        0.2200
     30 C          13.8900   38.6740   11.8341 C.3     1  UNL1        0.0522
     31 N          15.3372   39.9924   10.3371 N.ar    1  UNL1       -0.2179
     32 N          17.5221   39.3194    9.7872 N.ar    1  UNL1       -0.2179
@<TRIPOS>BOND
     1    25    26    1
     2    26    32   ar
     3    27    28   ar
     4    29    31   ar
     5    29    23    1
     6     2     3   ar
     7     4     7   ar
     8     5     1   ar
     9     6     4    1
    10     8     3    1
    11     8     9    1
    12     9    10    1
    13    10    11    1
    14    11    14    1
    15    12    14    1
    16    12     8    1
    17    16    13    1
    18    16    17    1
    19    17    21   ar
    20    18    22   ar
    21    19    22   ar
    22    20    19    1
    23    30    28    1
    24    23     1    1
    25    14    13   am
    26    26    27   ar
    27    28    31   ar
    28    29    32   ar
    29     1     2   ar
    30     3     7   ar
    31     4     5   ar
    32    13    15    2
    33    17    18   ar
    34    19    21   ar
    35    23    24    1
@<TRIPOS>MOLECULE
MolPort-020-292-513 MCULE-4185244807 PubChem-110264981
 32 35 0 0 0
SMALL
GASTEIGER

@<TRIPOS>ATOM
      1 C           7.5700   41.8483   11.1816 C.ar    1  UNL1        0.0528
      2 C           8.6995   41.8575   10.3599 C.ar    1  UNL1        0.0294
      3 C           9.9563   41.5809   10.9049 C.ar    1  UNL1        0.0611
      4 C           8.9916   41.2893   13.0561 C.ar    1  UNL1        0.0602
      5 C           7.7214   41.5613   12.5446 C.ar    1  UNL1        0.0294
      6 C           9.1604   40.9827   14.5006 C.3     1  UNL1        0.0521
      7 N          10.0741   41.3056   12.2340 N.ar    1  UNL1       -0.2538
      8 C          11.1590   41.5966   10.0211 C.3     1  UNL1        0.0602
      9 C          10.7535   41.7943    8.5586 C.3     1  UNL1        0.0094
     10 C          11.9894   41.8120    7.6616 C.3     1  UNL1        0.0219
     11 C          12.7711   40.5126    7.8259 C.3     1  UNL1        0.0934
     12 C          11.9642   40.3078   10.1867 C.3     1  UNL1        0.0993
     13 C          14.4241   40.1269    9.6953 C.2     1  UNL1        0.2317
     14 N          13.0746   40.3031    9.2391 N.am    1  UNL1       -0.2788
     15 O          14.6623   39.9762   10.9238 O.2     1  UNL1       -0.2744
     16 C          15.5640   40.0865    8.7286 C.3     1  UNL1        0.1314
     17 C          16.0856   41.4609    8.4855 C.ar    1  UNL1        0.0748
     18 C          17.1925   41.9664    9.1675 C.ar    1  UNL1        0.0517
     19 C          16.1769   43.4586    7.4796 C.ar    1  UNL1        0.0883
     20 C          15.7971   44.5531    6.5488 C.3     1  UNL1        0.0594
     21 N          15.5300   42.2795    7.5508 N.ar    1  UNL1       -0.2465
     22 S          17.4544   43.5162    8.5605 S.2     1  UNL1       -0.0706
     23 N           6.2911   42.1376   10.5993 N.pl3   1  UNL1       -0.2825
     24 H           5.5022   41.8641   11.1208 H       1  UNL1        0.1551
     25 C           3.5783   45.1544    7.8529 C.3     1  UNL1        0.0522
     26 C           4.7349   44.2325    7.9958 C.ar    1  UNL1        0.0634
     27 C           5.5681   43.9851    6.9069 C.ar    1  UNL1        0.0296
     28 C           6.6412   43.1131    7.0814 C.ar    1  UNL1        0.0634
     29 C           6.0317   42.7801    9.3438 C.ar    1  UNL1        0.2200
     30 C           7.5543   42.8223    5.9456 C.3     1  UNL1        0.0522
     31 N           6.8527   42.5291    8.2898 N.ar    1  UNL1       -0.2179
     32 N           4.9783   43.6285    9.1879 N.ar    1  UNL1       -0.2179
@<TRIPOS>BOND
     1    25    26    1
     2    26    32   ar
     3    27    28   ar
     4    29    31   ar
     5    29    23    1
     6     2     3   ar
     7     4     7   ar
     8     5     1   ar
     9     6     4    1
    10     8     3    1
    11     8     9    1
    12     9    10    1
    13    10    11    1
    14    11    14    1
    15    12    14    1
    16    12     8    1
    17    16    13    1
    18    16    17    1
    19    17    21   ar
    20    18    22   ar
    21    19    22   ar
    22    20    19    1
    23    30    28    1
    24    23     1    1
    25    14    13   am
    26    26    27   ar
    27    28    31   ar
    28    29    32   ar
    29     1     2   ar
    30     3     7   ar
    31     4     5   ar
    32    13    15    2
    33    17    18   ar
    34    19    21   ar
    35    23    24    1
@<TRIPOS>MOLECULE
MolPort-020-292-513 MCULE-4185244807 PubChem-110264981
 32 35 0 0 0
SMALL
GASTEIGER

@<TRIPOS>ATOM
      1 C          13.5774   38.8157    9.4766 C.ar    1  UNL1        0.0528
      2 C          12.4306   39.4053    8.9398 C.ar    1  UNL1        0.0294
      3 C          11.2182   38.7105    8.9616 C.ar    1  UNL1        0.0611
      4 C          12.2615   36.8650   10.0336 C.ar    1  UNL1        0.0602
      5 C          13.4886   37.5309   10.0282 C.ar    1  UNL1        0.0294
      6 C          12.1586   35.5024   10.6181 C.3     1  UNL1        0.0521
      7 N          11.1610   37.4620    9.5039 N.ar    1  UNL1       -0.2538
      8 C           9.9979   39.3456    8.3824 C.3     1  UNL1        0.0602
      9 C           9.5054   38.5606    7.1644 C.3     1  UNL1        0.0094
     10 C           8.2556   39.2151    6.5795 C.3     1  UNL1        0.0219
     11 C           8.5556   40.6603    6.1952 C.3     1  UNL1        0.0934
     12 C          10.2764   40.8013    8.0078 C.3     1  UNL1        0.0993
     13 C           8.4921   42.5668    7.8497 C.2     1  UNL1        0.2317
     14 N           9.1022   41.3673    7.3505 N.am    1  UNL1       -0.2788
     15 O           8.9665   43.1425    8.8657 O.2     1  UNL1       -0.2744
     16 C           7.3103   43.1724    7.1627 C.3     1  UNL1        0.1314
     17 C           6.0842   42.9975    7.9911 C.ar    1  UNL1        0.0748
     18 C           5.1442   44.0158    8.1501 C.ar    1  UNL1        0.0517
     19 C           4.6316   41.8737    9.2709 C.ar    1  UNL1        0.0883
     20 C           4.0602   40.7341   10.0347 C.3     1  UNL1        0.0594
     21 N           5.7992   41.8153    8.6024 N.ar    1  UNL1       -0.2465
     22 S           3.9187   43.3810    9.1167 S.2     1  UNL1       -0.0706
     23 N          14.8107   39.5480    9.4405 N.pl3   1  UNL1       -0.2825
     24 H          15.5415   39.1999   10.0008 H       1  UNL1        0.1551
     25 C          17.8681   43.1830    8.2395 C.3     1  UNL1        0.0522
     26 C          16.5592   42.4965    8.0851 C.ar    1  UNL1        0.0634
     27 C          15.6057   43.0032    7.2048 C.ar    1  UNL1        0.0296
     28 C          14.3901   42.3313    7.0897 C.ar    1  UNL1        0.0634
     29 C          15.0996   40.7293    8.6808 C.ar    1  UNL1        0.2200
     30 C          13.3460   42.8382    6.1618 C.3     1  UNL1        0.0522
     31 N          14.1597   41.2127    7.8258 N.ar    1  UNL1       -0.2179
     32 N          16.2913   41.3761    8.8049 N.ar    1  UNL1       -0.2179
@<TRIPOS>BOND
     1    25    26    1
     2    26    32   ar
     3    27    28   ar
     4    29    31   ar
     5    29    23    1
     6     2     3   ar
     7     4     7   ar
     8     5     1   ar
     9     6     4    1
    10     8     3    1
    11     8     9    1
    12     9    10    1
    13    10    11    1
    14    11    14    1
    15    12    14    1
    16    12     8    1
    17    16    13    1
    18    16    17    1
    19    17    21   ar
    20    18    22   ar
    21    19    22   ar
    22    20    19    1
    23    30    28    1
    24    23     1    1
    25    14    13   am
    26    26    27   ar
    27    28    31   ar
    28    29    32   ar
    29     1     2   ar
    30     3     7   ar
    31     4     5   ar
    32    13    15    2
    33    17    18   ar
    34    19    21   ar
    35    23    24    1
@<TRIPOS>MOLECULE
MolPort-020-292-513 MCULE-4185244807 PubChem-110264981
 32 35 0 0 0
SMALL
GASTEIGER

@<TRIPOS>ATOM
      1 C          13.5465   38.7992    9.3911 C.ar    1  UNL1        0.0528
      2 C          12.3969   39.3969    8.8694 C.ar    1  UNL1        0.0294
      3 C          11.1766   38.7177    8.9228 C.ar    1  UNL1        0.0611
      4 C          12.2176   36.8720    9.9966 C.ar    1  UNL1        0.0602
      5 C          13.4525   37.5222    9.9596 C.ar    1  UNL1        0.0294
      6 C          12.1092   35.5177   10.5992 C.3     1  UNL1        0.0521
      7 N          11.1145   37.4765    9.4810 N.ar    1  UNL1       -0.2538
      8 C           9.9533   39.3613    8.3596 C.3     1  UNL1        0.0602
      9 C           9.4518   38.5920    7.1353 C.3     1  UNL1        0.0094
     10 C           8.1989   39.2550    6.5669 C.3     1  UNL1        0.0219
     11 C           8.4981   40.7045    6.1983 C.3     1  UNL1        0.0934
     12 C          10.2310   40.8211    8.0011 C.3     1  UNL1        0.0993
     13 C           8.4479   42.5906    7.8766 C.2     1  UNL1        0.2317
     14 N           9.0533   41.3966    7.3586 N.am    1  UNL1       -0.2788
     15 O           8.9297   43.1532    8.8964 O.2     1  UNL1       -0.2744
     16 C           7.2623   43.2058    7.2049 C.3     1  UNL1        0.1314
     17 C           6.0391   43.0107    8.0330 C.ar    1  UNL1        0.0748
     18 C           5.0888   44.0177    8.2026 C.ar    1  UNL1        0.0517
     19 C           4.5996   41.8601    9.3039 C.ar    1  UNL1        0.0883
     20 C           4.0409   40.7076   10.0577 C.3     1  UNL1        0.0594
     21 N           5.7669   41.8200    8.6336 N.ar    1  UNL1       -0.2465
     22 S           3.8711   43.3613    9.1645 S.2     1  UNL1       -0.0706
     23 N          14.7878   39.5155    9.3225 N.pl3   1  UNL1       -0.2825
     24 H          15.5408   39.1331    9.8285 H       1  UNL1        0.1551
     25 C          13.3821   42.9582    6.1327 C.3     1  UNL1        0.0522
     26 C          14.3998   42.4003    7.0608 C.ar    1  UNL1        0.0634
     27 C          15.6213   43.0490    7.2276 C.ar    1  UNL1        0.0296
     28 C          16.5497   42.4929    8.1060 C.ar    1  UNL1        0.0634
     29 C          15.0560   40.7251    8.6006 C.ar    1  UNL1        0.2200
     30 C          17.8646   43.1535    8.3132 C.3     1  UNL1        0.0522
     31 N          16.2524   41.3471    8.7730 N.ar    1  UNL1       -0.2179
     32 N          14.1398   41.2557    7.7445 N.ar    1  UNL1       -0.2179
@<TRIPOS>BOND
     1    25    26    1
     2    26    32   ar
     3    27    28   ar
     4    29    31   ar
     5    29    23    1
     6     2     3   ar
     7     4     7   ar
     8     5     1   ar
     9     6     4    1
    10     8     3    1
    11     8     9    1
    12     9    10    1
    13    10    11    1
    14    11    14    1
    15    12    14    1
    16    12     8    1
    17    16    13    1
    18    16    17    1
    19    17    21   ar
    20    18    22   ar
    21    19    22   ar
    22    20    19    1
    23    30    28    1
    24    23     1    1
    25    14    13   am
    26    26    27   ar
    27    28    31   ar
    28    29    32   ar
    29     1     2   ar
    30     3     7   ar
    31     4     5   ar
    32    13    15    2
    33    17    18   ar
    34    19    21   ar
    35    23    24    1
@<TRIPOS>MOLECULE
MolPort-020-292-513 MCULE-4185244807 PubChem-110264981
 32 35 0 0 0
SMALL
GASTEIGER

@<TRIPOS>ATOM
      1 C          14.7889   39.9983    9.4875 C.ar    1  UNL1        0.0528
      2 C          13.5540   40.4965    9.0659 C.ar    1  UNL1        0.0294
      3 C          12.3779   39.8367    9.4328 C.ar    1  UNL1        0.0611
      4 C          13.6296   38.2049   10.6218 C.ar    1  UNL1        0.0602
      5 C          14.8236   38.8391   10.2735 C.ar    1  UNL1        0.0294
      6 C          13.6578   36.9754   11.4564 C.3     1  UNL1        0.0521
      7 N          12.4414   38.7109   10.1974 N.ar    1  UNL1       -0.2538
      8 C          11.0622   40.3729    8.9750 C.3     1  UNL1        0.0602
      9 C          10.2750   40.9530   10.1522 C.3     1  UNL1        0.0094
     10 C           8.9319   41.5018    9.6752 C.3     1  UNL1        0.0219
     11 C           8.1310   40.3979    8.9922 C.3     1  UNL1        0.0934
     12 C          10.2534   39.2829    8.2717 C.3     1  UNL1        0.0993
     13 C           8.4596   39.7538    6.5728 C.2     1  UNL1        0.2317
     14 N           8.9337   39.8029    7.9268 N.am    1  UNL1       -0.2788
     15 O           9.1834   39.2607    5.6663 O.2     1  UNL1       -0.2744
     16 C           7.0959   40.2528    6.2165 C.3     1  UNL1        0.1314
     17 C           6.8888   41.6251    6.7587 C.ar    1  UNL1        0.0748
     18 C           7.6697   42.7084    6.3557 C.ar    1  UNL1        0.0517
     19 C           5.8731   43.2034    7.9787 C.ar    1  UNL1        0.0883
     20 C           4.8968   43.7974    8.9287 C.3     1  UNL1        0.0594
     21 N           5.8947   41.8983    7.6473 N.ar    1  UNL1       -0.2465
     22 S           7.0729   44.0529    7.1772 S.2     1  UNL1       -0.0706
     23 N          15.9823   40.6920    9.0961 N.pl3   1  UNL1       -0.2825
     24 H          16.8301   40.3324    9.4442 H       1  UNL1        0.1551
     25 C          13.9716   43.7745    5.8621 C.3     1  UNL1        0.0522
     26 C          15.1308   43.3519    6.6903 C.ar    1  UNL1        0.0634
     27 C          16.3195   44.0772    6.6476 C.ar    1  UNL1        0.0296
     28 C          17.3839   43.6476    7.4381 C.ar    1  UNL1        0.0634
     29 C          16.0802   41.8495    8.2554 C.ar    1  UNL1        0.2200
     30 C          18.6693   44.3931    7.4222 C.3     1  UNL1        0.0522
     31 N          17.2463   42.5474    8.2234 N.ar    1  UNL1       -0.2179
     32 N          15.0322   42.2564    7.4873 N.ar    1  UNL1       -0.2179
@<TRIPOS>BOND
     1    25    26    1
     2    26    32   ar
     3    27    28   ar
     4    29    31   ar
     5    29    23    1
     6     2     3   ar
     7     4     7   ar
     8     5     1   ar
     9     6     4    1
    10     8     3    1
    11     8     9    1
    12     9    10    1
    13    10    11    1
    14    11    14    1
    15    12    14    1
    16    12     8    1
    17    16    13    1
    18    16    17    1
    19    17    21   ar
    20    18    22   ar
    21    19    22   ar
    22    20    19    1
    23    30    28    1
    24    23     1    1
    25    14    13   am
    26    26    27   ar
    27    28    31   ar
    28    29    32   ar
    29     1     2   ar
    30     3     7   ar
    31     4     5   ar
    32    13    15    2
    33    17    18   ar
    34    19    21   ar
    35    23    24    1
