@<TRIPOS>MOLECULE
MolPort-009-692-523 9203998 CSSS00106609010 MCULE-8697503382 PubChem-16953668 UXYJRMSYGVHNHR-UHFFFAOYSA-N ZINC000009203998 ZINC09203998
 29 32 0 0 0
SMALL
GASTEIGER

@<TRIPOS>ATOM
      1 C           3.5665   39.3840    4.6237 C.ar    1  UNL1        0.1659
      2 C           2.1561   39.4491    2.8691 C.ar    1  UNL1        0.0923
      3 C           2.9701   38.3709    2.4739 C.ar    1  UNL1        0.0886
      4 N           2.5018   39.9994    4.0669 N.ar    1  UNL1       -0.2238
      5 S           4.1313   38.1262    3.6734 S.2     1  UNL1       -0.0481
      6 C           1.0439   40.0212    2.0787 C.ar    1  UNL1        0.0183
      7 C           0.7249   41.3804    2.2169 C.ar    1  UNL1        0.0015
      8 C          -0.2965   41.9513    1.4521 C.ar    1  UNL1        0.0000
      9 C          -1.0016   41.1696    0.5337 C.ar    1  UNL1        0.0000
     10 C          -0.6821   39.8188    0.3767 C.ar    1  UNL1        0.0000
     11 C           0.3397   39.2494    1.1417 C.ar    1  UNL1        0.0015
     12 C           5.4881   40.2076    6.0645 C.2     1  UNL1        0.2720
     13 N           4.1425   39.7527    5.8802 N.am    1  UNL1       -0.2593
     14 O           6.2725   40.3122    5.0829 O.2     1  UNL1       -0.2680
     15 H           3.5705   39.6888    6.6789 H       1  UNL1        0.1571
     16 C           5.7857   41.7093   10.8165 C.3     1  UNL1        0.0754
     17 C           6.0836   41.2000    9.4523 C.ar    1  UNL1        0.1550
     18 C           5.1637   41.0534    8.4331 C.ar    1  UNL1        0.0627
     19 C           5.9554   40.5550    7.4109 C.ar    1  UNL1        0.1761
     20 N           7.2339   40.4257    7.8141 N.ar    1  UNL1       -0.0727
     21 O           7.2719   40.8240    9.0492 O.2     1  UNL1       -0.3576
     22 C           2.7697   37.4641    1.3240 C.2     1  UNL1        0.2030
     23 O           1.8289   37.7023    0.5186 O.2     1  UNL1       -0.2860
     24 C           3.6181   36.2704    1.1110 C.ar    1  UNL1        0.0395
     25 C           4.7035   36.3330    0.2234 C.ar    1  UNL1        0.0032
     26 C           5.5248   35.2189    0.0261 C.ar    1  UNL1        0.0001
     27 C           5.2712   34.0328    0.7190 C.ar    1  UNL1        0.0000
     28 C           4.1983   33.9613    1.6109 C.ar    1  UNL1        0.0001
     29 C           3.3779   35.0756    1.8077 C.ar    1  UNL1        0.0032
@<TRIPOS>BOND
     1    16    17    1
     2    17    21   ar
     3    18    19   ar
     4    19    12    1
     5    12    13   am
     6     1     5   ar
     7     2     4   ar
     8     2     6    1
     9     3     5   ar
    10     3    22    1
    11    22    24    1
    12    25    26   ar
    13    27    28   ar
    14    29    24   ar
    15     7     8   ar
    16     9    10   ar
    17    11     6   ar
    18    20    21   ar
    19    13     1    1
    20    17    18   ar
    21    19    20   ar
    22    12    14    2
    23     1     4   ar
    24     2     3   ar
    25    22    23    2
    26    24    25   ar
    27    26    27   ar
    28    28    29   ar
    29     6     7   ar
    30     8     9   ar
    31    10    11   ar
    32    13    15    1
@<TRIPOS>MOLECULE
MolPort-009-692-523 9203998 CSSS00106609010 MCULE-8697503382 PubChem-16953668 UXYJRMSYGVHNHR-UHFFFAOYSA-N ZINC000009203998 ZINC09203998
 29 32 0 0 0
SMALL
GASTEIGER

@<TRIPOS>ATOM
      1 C          12.5152   41.8941    7.4809 C.ar    1  UNL1        0.1659
      2 C          10.4410   41.4859    8.2576 C.ar    1  UNL1        0.0923
      3 C          10.3737   40.7896    7.0361 C.ar    1  UNL1        0.0886
      4 N          11.6391   42.0930    8.4884 N.ar    1  UNL1       -0.2238
      5 S          11.8621   40.9541    6.2585 S.2     1  UNL1       -0.0481
      6 C           9.3315   41.6334    9.2253 C.ar    1  UNL1        0.0183
      7 C           8.0853   42.1013    8.7825 C.ar    1  UNL1        0.0015
      8 C           7.0119   42.2121    9.6711 C.ar    1  UNL1        0.0000
      9 C           7.1726   41.8454   11.0096 C.ar    1  UNL1        0.0000
     10 C           8.4048   41.3636   11.4580 C.ar    1  UNL1        0.0000
     11 C           9.4770   41.2530   10.5683 C.ar    1  UNL1        0.0015
     12 C          14.3042   43.4655    6.5994 C.2     1  UNL1        0.2720
     13 N          13.8475   42.4145    7.4588 N.am    1  UNL1       -0.2593
     14 O          13.5190   44.0130    5.7787 O.2     1  UNL1       -0.2680
     15 H          14.5002   42.0203    8.0817 H       1  UNL1        0.1571
     16 C          19.0354   44.2403    7.9924 C.3     1  UNL1        0.0754
     17 C          17.7333   44.2403    7.2756 C.ar    1  UNL1        0.1550
     18 C          16.5932   43.5779    7.6852 C.ar    1  UNL1        0.0627
     19 C          15.7009   43.9073    6.6775 C.ar    1  UNL1        0.1761
     20 N          16.2859   44.6997    5.7590 N.ar    1  UNL1       -0.0727
     21 O          17.5098   44.8782    6.1535 O.2     1  UNL1       -0.3576
     22 C           9.2904   39.9025    6.5627 C.2     1  UNL1        0.2030
     23 O           8.2900   39.7138    7.3070 O.2     1  UNL1       -0.2860
     24 C           9.3623   39.2059    5.2590 C.ar    1  UNL1        0.0395
     25 C          10.0731   38.0008    5.1479 C.ar    1  UNL1        0.0032
     26 C          10.1341   37.3222    3.9272 C.ar    1  UNL1        0.0001
     27 C           9.4801   37.8401    2.8067 C.ar    1  UNL1        0.0000
     28 C           8.7632   39.0348    2.9073 C.ar    1  UNL1        0.0001
     29 C           8.7025   39.7125    4.1281 C.ar    1  UNL1        0.0032
@<TRIPOS>BOND
     1    16    17    1
     2    17    21   ar
     3    18    19   ar
     4    19    12    1
     5    12    13   am
     6     1     5   ar
     7     2     4   ar
     8     2     6    1
     9     3     5   ar
    10     3    22    1
    11    22    24    1
    12    25    26   ar
    13    27    28   ar
    14    29    24   ar
    15     7     8   ar
    16     9    10   ar
    17    11     6   ar
    18    20    21   ar
    19    13     1    1
    20    17    18   ar
    21    19    20   ar
    22    12    14    2
    23     1     4   ar
    24     2     3   ar
    25    22    23    2
    26    24    25   ar
    27    26    27   ar
    28    28    29   ar
    29     6     7   ar
    30     8     9   ar
    31    10    11   ar
    32    13    15    1
@<TRIPOS>MOLECULE
MolPort-009-692-523 9203998 CSSS00106609010 MCULE-8697503382 PubChem-16953668 UXYJRMSYGVHNHR-UHFFFAOYSA-N ZINC000009203998 ZINC09203998
 29 32 0 0 0
SMALL
GASTEIGER

@<TRIPOS>ATOM
      1 C          12.2504   42.2525    7.9550 C.ar    1  UNL1        0.1659
      2 C          10.4007   41.8693    9.1814 C.ar    1  UNL1        0.0923
      3 C           9.8871   41.6080    7.8972 C.ar    1  UNL1        0.0886
      4 N          11.7161   42.2254    9.1943 N.ar    1  UNL1       -0.2238
      5 S          11.1326   41.8318    6.7811 S.2     1  UNL1       -0.0481
      6 C           9.6252   41.8340   10.4409 C.ar    1  UNL1        0.0183
      7 C           9.9111   40.8527   11.4019 C.ar    1  UNL1        0.0015
      8 C           9.2176   40.8239   12.6153 C.ar    1  UNL1        0.0000
      9 C           8.2384   41.7837   12.8831 C.ar    1  UNL1        0.0000
     10 C           7.9564   42.7748   11.9398 C.ar    1  UNL1        0.0000
     11 C           8.6508   42.8026   10.7272 C.ar    1  UNL1        0.0015
     12 C          14.0356   43.5074    6.6571 C.2     1  UNL1        0.2720
     13 N          13.6113   42.5911    7.6728 N.am    1  UNL1       -0.2593
     14 O          13.1924   44.0914    5.9238 O.2     1  UNL1       -0.2680
     15 H          14.3093   42.1615    8.2183 H       1  UNL1        0.1571
     16 C          18.9306   44.2025    7.3511 C.3     1  UNL1        0.0754
     17 C          17.5701   44.0658    6.7683 C.ar    1  UNL1        0.1550
     18 C          16.4204   43.7772    7.4763 C.ar    1  UNL1        0.0627
     19 C          15.4673   43.7672    6.4705 C.ar    1  UNL1        0.1761
     20 N          16.0289   44.0307    5.2751 N.ar    1  UNL1       -0.0727
     21 O          17.2965   44.2049    5.4948 O.2     1  UNL1       -0.3576
     22 C           8.5620   41.0514    7.5523 C.2     1  UNL1        0.2030
     23 O           8.5058   39.9540    6.9333 O.2     1  UNL1       -0.2860
     24 C           7.3052   41.7596    7.8824 C.ar    1  UNL1        0.0395
     25 C           7.0955   43.0666    7.4159 C.ar    1  UNL1        0.0032
     26 C           5.9054   43.7413    7.7042 C.ar    1  UNL1        0.0001
     27 C           4.9112   43.1127    8.4577 C.ar    1  UNL1        0.0000
     28 C           5.1057   41.8092    8.9208 C.ar    1  UNL1        0.0001
     29 C           6.2957   41.1354    8.6319 C.ar    1  UNL1        0.0032
@<TRIPOS>BOND
     1    16    17    1
     2    17    21   ar
     3    18    19   ar
     4    19    12    1
     5    12    13   am
     6     1     5   ar
     7     2     4   ar
     8     2     6    1
     9     3     5   ar
    10     3    22    1
    11    22    24    1
    12    25    26   ar
    13    27    28   ar
    14    29    24   ar
    15     7     8   ar
    16     9    10   ar
    17    11     6   ar
    18    20    21   ar
    19    13     1    1
    20    17    18   ar
    21    19    20   ar
    22    12    14    2
    23     1     4   ar
    24     2     3   ar
    25    22    23    2
    26    24    25   ar
    27    26    27   ar
    28    28    29   ar
    29     6     7   ar
    30     8     9   ar
    31    10    11   ar
    32    13    15    1
@<TRIPOS>MOLECULE
MolPort-009-692-523 9203998 CSSS00106609010 MCULE-8697503382 PubChem-16953668 UXYJRMSYGVHNHR-UHFFFAOYSA-N ZINC000009203998 ZINC09203998
 29 32 0 0 0
SMALL
GASTEIGER

@<TRIPOS>ATOM
      1 C           4.2977   41.4461   11.6611 C.ar    1  UNL1        0.1659
      2 C           6.4470   41.3223   10.9999 C.ar    1  UNL1        0.0923
      3 C           5.8101   41.1126    9.7623 C.ar    1  UNL1        0.0886
      4 N           5.5907   41.5065   12.0439 N.ar    1  UNL1       -0.2238
      5 S           4.1431   41.1706   10.0165 S.2     1  UNL1       -0.0481
      6 C           7.9086   41.3016   11.2289 C.ar    1  UNL1        0.0183
      7 C           8.7806   41.5157   10.1510 C.ar    1  UNL1        0.0015
      8 C          10.1640   41.5389   10.3506 C.ar    1  UNL1        0.0000
      9 C          10.6877   41.3585   11.6332 C.ar    1  UNL1        0.0000
     10 C           9.8281   41.1600   12.7163 C.ar    1  UNL1        0.0000
     11 C           8.4451   41.1376   12.5153 C.ar    1  UNL1        0.0015
     12 C           1.9266   42.1840   12.1905 C.2     1  UNL1        0.2720
     13 N           3.1874   41.6064   12.5488 N.am    1  UNL1       -0.2593
     14 O           1.7192   42.6011   11.0188 O.2     1  UNL1       -0.2680
     15 H           3.2984   41.2962   13.4765 H       1  UNL1        0.1571
     16 C          -2.4655   42.5354   14.5381 C.3     1  UNL1        0.0754
     17 C          -1.0192   42.4409   14.2085 C.ar    1  UNL1        0.1550
     18 C          -0.4915   42.3521   12.9358 C.ar    1  UNL1        0.0627
     19 C           0.8674   42.2900   13.1998 C.ar    1  UNL1        0.1761
     20 N           1.1011   42.3398   14.5252 N.ar    1  UNL1       -0.0727
     21 O          -0.0594   42.4304   15.1000 O.2     1  UNL1       -0.3576
     22 C           6.4378   41.0413    8.4260 C.2     1  UNL1        0.2030
     23 O           6.8765   39.9313    8.0188 O.2     1  UNL1       -0.2860
     24 C           6.5951   42.2382    7.5700 C.ar    1  UNL1        0.0395
     25 C           6.4441   42.1281    6.1790 C.ar    1  UNL1        0.0032
     26 C           6.5716   43.2536    5.3595 C.ar    1  UNL1        0.0001
     27 C           6.8462   44.5013    5.9244 C.ar    1  UNL1        0.0000
     28 C           6.9908   44.6243    7.3084 C.ar    1  UNL1        0.0001
     29 C           6.8630   43.4986    8.1269 C.ar    1  UNL1        0.0032
@<TRIPOS>BOND
     1    16    17    1
     2    17    21   ar
     3    18    19   ar
     4    19    12    1
     5    12    13   am
     6     1     5   ar
     7     2     4   ar
     8     2     6    1
     9     3     5   ar
    10     3    22    1
    11    22    24    1
    12    25    26   ar
    13    27    28   ar
    14    29    24   ar
    15     7     8   ar
    16     9    10   ar
    17    11     6   ar
    18    20    21   ar
    19    13     1    1
    20    17    18   ar
    21    19    20   ar
    22    12    14    2
    23     1     4   ar
    24     2     3   ar
    25    22    23    2
    26    24    25   ar
    27    26    27   ar
    28    28    29   ar
    29     6     7   ar
    30     8     9   ar
    31    10    11   ar
    32    13    15    1
@<TRIPOS>MOLECULE
MolPort-009-692-523 9203998 CSSS00106609010 MCULE-8697503382 PubChem-16953668 UXYJRMSYGVHNHR-UHFFFAOYSA-N ZINC000009203998 ZINC09203998
 29 32 0 0 0
SMALL
GASTEIGER

@<TRIPOS>ATOM
      1 C           4.8506   42.1695   11.2159 C.ar    1  UNL1        0.1659
      2 C           6.9889   41.8380   10.5914 C.ar    1  UNL1        0.0923
      3 C           6.4470   42.2482    9.3587 C.ar    1  UNL1        0.0886
      4 N           6.0871   41.8008   11.6125 N.ar    1  UNL1       -0.2238
      5 S           4.8064   42.5674    9.5898 S.2     1  UNL1       -0.0481
      6 C           8.3892   41.4170   10.8174 C.ar    1  UNL1        0.0183
      7 C           9.1730   41.0089    9.7278 C.ar    1  UNL1        0.0015
      8 C          10.5097   40.6437    9.9121 C.ar    1  UNL1        0.0000
      9 C          11.0780   40.6937   11.1873 C.ar    1  UNL1        0.0000
     10 C          10.3112   41.1134   12.2769 C.ar    1  UNL1        0.0000
     11 C           8.9749   41.4786   12.0912 C.ar    1  UNL1        0.0015
     12 C           2.3481   42.2282   11.6410 C.2     1  UNL1        0.2720
     13 N           3.7116   42.2241   12.0797 N.am    1  UNL1       -0.2593
     14 O           2.0668   42.1816   10.4128 O.2     1  UNL1       -0.2680
     15 H           3.8775   42.2618   13.0494 H       1  UNL1        0.1571
     16 C          -0.2896   42.5756   15.8655 C.3     1  UNL1        0.0754
     17 C           0.1364   42.4365   14.4484 C.ar    1  UNL1        0.1550
     18 C           1.4419   42.4492   13.9992 C.ar    1  UNL1        0.0627
     19 C           1.2697   42.2872   12.6338 C.ar    1  UNL1        0.1761
     20 N          -0.0371   42.1887   12.3235 N.ar    1  UNL1       -0.0727
     21 O          -0.6887   42.2831   13.4425 O.2     1  UNL1       -0.3576
     22 C           7.1760   42.5458    8.1078 C.2     1  UNL1        0.2030
     23 O           7.4313   43.7478    7.8242 O.2     1  UNL1       -0.2860
     24 C           7.5835   41.4791    7.1664 C.ar    1  UNL1        0.0395
     25 C           8.7908   41.5935    6.4598 C.ar    1  UNL1        0.0032
     26 C           9.1977   40.5852    5.5811 C.ar    1  UNL1        0.0001
     27 C           8.4031   39.4499    5.4047 C.ar    1  UNL1        0.0000
     28 C           7.2032   39.3216    6.1086 C.ar    1  UNL1        0.0001
     29 C           6.7973   40.3301    6.9871 C.ar    1  UNL1        0.0032
@<TRIPOS>BOND
     1    16    17    1
     2    17    21   ar
     3    18    19   ar
     4    19    12    1
     5    12    13   am
     6     1     5   ar
     7     2     4   ar
     8     2     6    1
     9     3     5   ar
    10     3    22    1
    11    22    24    1
    12    25    26   ar
    13    27    28   ar
    14    29    24   ar
    15     7     8   ar
    16     9    10   ar
    17    11     6   ar
    18    20    21   ar
    19    13     1    1
    20    17    18   ar
    21    19    20   ar
    22    12    14    2
    23     1     4   ar
    24     2     3   ar
    25    22    23    2
    26    24    25   ar
    27    26    27   ar
    28    28    29   ar
    29     6     7   ar
    30     8     9   ar
    31    10    11   ar
    32    13    15    1
@<TRIPOS>MOLECULE
MolPort-009-692-523 9203998 CSSS00106609010 MCULE-8697503382 PubChem-16953668 UXYJRMSYGVHNHR-UHFFFAOYSA-N ZINC000009203998 ZINC09203998
 29 32 0 0 0
SMALL
GASTEIGER

@<TRIPOS>ATOM
      1 C           3.5258   42.2766   11.2761 C.ar    1  UNL1        0.1659
      2 C           5.6685   41.7836   10.7882 C.ar    1  UNL1        0.0923
      3 C           5.0682   41.4571    9.5576 C.ar    1  UNL1        0.0886
      4 N           4.7960   42.2381   11.7313 N.ar    1  UNL1       -0.2238
      5 S           3.4134   41.7605    9.6869 S.2     1  UNL1       -0.0481
      6 C           7.1021   41.6200   11.1156 C.ar    1  UNL1        0.0183
      7 C           8.0738   42.0315   10.1912 C.ar    1  UNL1        0.0015
      8 C           9.4339   41.9222   10.4949 C.ar    1  UNL1        0.0000
      9 C           9.8345   41.4097   11.7312 C.ar    1  UNL1        0.0000
     10 C           8.8753   41.0114   12.6654 C.ar    1  UNL1        0.0000
     11 C           7.5157   41.1217   12.3606 C.ar    1  UNL1        0.0015
     12 C           1.7086   41.9112   13.0113 C.2     1  UNL1        0.2720
     13 N           2.4061   42.7138   12.0517 N.am    1  UNL1       -0.2593
     14 O           2.0613   40.7212   13.2333 O.2     1  UNL1       -0.2680
     15 H           2.0910   43.6366   11.9156 H       1  UNL1        0.1571
     16 C          -1.6736   45.0021   14.9942 C.3     1  UNL1        0.0754
     17 C          -0.8810   43.8102   14.5937 C.ar    1  UNL1        0.1550
     18 C           0.2430   43.8278   13.7920 C.ar    1  UNL1        0.0627
     19 C           0.5721   42.4827   13.7419 C.ar    1  UNL1        0.1761
     20 N          -0.2983   41.7489   14.4614 N.ar    1  UNL1       -0.0727
     21 O          -1.1591   42.5835   14.9594 O.2     1  UNL1       -0.3576
     22 C           5.7429   41.0942    8.2936 C.2     1  UNL1        0.2030
     23 O           5.8135   39.8774    7.9696 O.2     1  UNL1       -0.2860
     24 C           6.3648   42.1121    7.4177 C.ar    1  UNL1        0.0395
     25 C           5.9670   43.4547    7.5135 C.ar    1  UNL1        0.0032
     26 C           6.5587   44.4301    6.7056 C.ar    1  UNL1        0.0001
     27 C           7.5581   44.0727    5.7975 C.ar    1  UNL1        0.0000
     28 C           7.9676   42.7407    5.6989 C.ar    1  UNL1        0.0001
     29 C           7.3757   41.7662    6.5072 C.ar    1  UNL1        0.0032
@<TRIPOS>BOND
     1    16    17    1
     2    17    21   ar
     3    18    19   ar
     4    19    12    1
     5    12    13   am
     6     1     5   ar
     7     2     4   ar
     8     2     6    1
     9     3     5   ar
    10     3    22    1
    11    22    24    1
    12    25    26   ar
    13    27    28   ar
    14    29    24   ar
    15     7     8   ar
    16     9    10   ar
    17    11     6   ar
    18    20    21   ar
    19    13     1    1
    20    17    18   ar
    21    19    20   ar
    22    12    14    2
    23     1     4   ar
    24     2     3   ar
    25    22    23    2
    26    24    25   ar
    27    26    27   ar
    28    28    29   ar
    29     6     7   ar
    30     8     9   ar
    31    10    11   ar
    32    13    15    1
@<TRIPOS>MOLECULE
MolPort-009-692-523 9203998 CSSS00106609010 MCULE-8697503382 PubChem-16953668 UXYJRMSYGVHNHR-UHFFFAOYSA-N ZINC000009203998 ZINC09203998
 29 32 0 0 0
SMALL
GASTEIGER

@<TRIPOS>ATOM
      1 C          10.4237   41.5243    8.6469 C.ar    1  UNL1        0.1659
      2 C          12.2177   40.3384    9.3159 C.ar    1  UNL1        0.0923
      3 C          12.8298   41.1647    8.3548 C.ar    1  UNL1        0.0886
      4 N          10.8802   40.5527    9.4654 N.ar    1  UNL1       -0.2238
      5 S          11.6451   42.1741    7.7033 S.2     1  UNL1       -0.0481
      6 C          12.8936   39.2742   10.0904 C.ar    1  UNL1        0.0183
      7 C          13.6184   39.6120   11.2431 C.ar    1  UNL1        0.0015
      8 C          14.2329   38.6191   12.0117 C.ar    1  UNL1        0.0000
      9 C          14.1188   37.2773   11.6400 C.ar    1  UNL1        0.0000
     10 C          13.3864   36.9282   10.5028 C.ar    1  UNL1        0.0000
     11 C          12.7722   37.9219    9.7354 C.ar    1  UNL1        0.0015
     12 C           8.5501   43.1374    9.2247 C.2     1  UNL1        0.2720
     13 N           9.0614   41.9574    8.5940 N.am    1  UNL1       -0.2593
     14 O           9.3095   43.8919    9.8910 O.2     1  UNL1       -0.2680
     15 H           8.4271   41.4023    8.0854 H       1  UNL1        0.1571
     16 C           3.5605   42.9846    9.1474 C.3     1  UNL1        0.0754
     17 C           4.9839   43.4035    9.0588 C.ar    1  UNL1        0.1550
     18 C           6.0740   42.5982    9.3220 C.ar    1  UNL1        0.0627
     19 C           7.1272   43.4689    9.0921 C.ar    1  UNL1        0.1761
     20 N           6.6744   44.6828    8.7242 N.ar    1  UNL1       -0.0727
     21 O           5.3785   44.6046    8.7156 O.2     1  UNL1       -0.3576
     22 C          14.2738   41.2972    8.0680 C.2     1  UNL1        0.2030
     23 O          15.0631   40.4136    8.5003 O.2     1  UNL1       -0.2860
     24 C          14.8207   42.4506    7.3195 C.ar    1  UNL1        0.0395
     25 C          16.0593   42.9992    7.6867 C.ar    1  UNL1        0.0032
     26 C          16.5972   44.0770    6.9771 C.ar    1  UNL1        0.0001
     27 C          15.9034   44.6133    5.8898 C.ar    1  UNL1        0.0000
     28 C          14.6734   44.0705    5.5103 C.ar    1  UNL1        0.0001
     29 C          14.1365   42.9928    6.2201 C.ar    1  UNL1        0.0032
@<TRIPOS>BOND
     1    16    17    1
     2    17    21   ar
     3    18    19   ar
     4    19    12    1
     5    12    13   am
     6     1     5   ar
     7     2     4   ar
     8     2     6    1
     9     3     5   ar
    10     3    22    1
    11    22    24    1
    12    25    26   ar
    13    27    28   ar
    14    29    24   ar
    15     7     8   ar
    16     9    10   ar
    17    11     6   ar
    18    20    21   ar
    19    13     1    1
    20    17    18   ar
    21    19    20   ar
    22    12    14    2
    23     1     4   ar
    24     2     3   ar
    25    22    23    2
    26    24    25   ar
    27    26    27   ar
    28    28    29   ar
    29     6     7   ar
    30     8     9   ar
    31    10    11   ar
    32    13    15    1
@<TRIPOS>MOLECULE
MolPort-009-692-523 9203998 CSSS00106609010 MCULE-8697503382 PubChem-16953668 UXYJRMSYGVHNHR-UHFFFAOYSA-N ZINC000009203998 ZINC09203998
 29 32 0 0 0
SMALL
GASTEIGER

@<TRIPOS>ATOM
      1 C          11.9112   42.3537    8.8257 C.ar    1  UNL1        0.1659
      2 C          10.3250   41.8735   10.3507 C.ar    1  UNL1        0.0923
      3 C           9.5313   41.8974    9.1885 C.ar    1  UNL1        0.0886
      4 N          11.6454   42.1286   10.1298 N.ar    1  UNL1       -0.2238
      5 S          10.5355   42.2424    7.8772 S.2     1  UNL1       -0.0481
      6 C           9.8279   41.6533   11.7268 C.ar    1  UNL1        0.0183
      7 C          10.6637   41.0442   12.6747 C.ar    1  UNL1        0.0015
      8 C          10.2292   40.8610   13.9907 C.ar    1  UNL1        0.0000
      9 C           8.9577   41.2955   14.3733 C.ar    1  UNL1        0.0000
     10 C           8.1231   41.9172   13.4416 C.ar    1  UNL1        0.0000
     11 C           8.5590   42.1001   12.1262 C.ar    1  UNL1        0.0015
     12 C          14.3494   41.7790    8.4118 C.2     1  UNL1        0.2720
     13 N          13.2128   42.6445    8.3085 N.am    1  UNL1       -0.2593
     14 O          14.2582   40.6629    8.9911 O.2     1  UNL1       -0.2680
     15 H          13.3368   43.5050    7.8464 H       1  UNL1        0.1571
     16 C          17.9118   43.9129    5.6403 C.3     1  UNL1        0.0754
     17 C          17.1624   43.1152    6.6458 C.ar    1  UNL1        0.1550
     18 C          15.7881   43.0706    6.7706 C.ar    1  UNL1        0.0627
     19 C          15.6319   42.1986    7.8362 C.ar    1  UNL1        0.1761
     20 N          16.8276   41.7747    8.2882 N.ar    1  UNL1       -0.0727
     21 O          17.7255   42.3484    7.5464 O.2     1  UNL1       -0.3576
     22 C           8.1108   41.5098    9.0588 C.2     1  UNL1        0.2030
     23 O           7.3019   41.8527    9.9636 O.2     1  UNL1       -0.2860
     24 C           7.6198   40.7052    7.9179 C.ar    1  UNL1        0.0395
     25 C           8.4095   39.6646    7.4045 C.ar    1  UNL1        0.0032
     26 C           7.9508   38.8842    6.3391 C.ar    1  UNL1        0.0001
     27 C           6.6951   39.1339    5.7804 C.ar    1  UNL1        0.0000
     28 C           5.8972   40.1619    6.2883 C.ar    1  UNL1        0.0001
     29 C           6.3564   40.9415    7.3535 C.ar    1  UNL1        0.0032
@<TRIPOS>BOND
     1    16    17    1
     2    17    21   ar
     3    18    19   ar
     4    19    12    1
     5    12    13   am
     6     1     5   ar
     7     2     4   ar
     8     2     6    1
     9     3     5   ar
    10     3    22    1
    11    22    24    1
    12    25    26   ar
    13    27    28   ar
    14    29    24   ar
    15     7     8   ar
    16     9    10   ar
    17    11     6   ar
    18    20    21   ar
    19    13     1    1
    20    17    18   ar
    21    19    20   ar
    22    12    14    2
    23     1     4   ar
    24     2     3   ar
    25    22    23    2
    26    24    25   ar
    27    26    27   ar
    28    28    29   ar
    29     6     7   ar
    30     8     9   ar
    31    10    11   ar
    32    13    15    1
@<TRIPOS>MOLECULE
MolPort-009-692-523 9203998 CSSS00106609010 MCULE-8697503382 PubChem-16953668 UXYJRMSYGVHNHR-UHFFFAOYSA-N ZINC000009203998 ZINC09203998
 29 32 0 0 0
SMALL
GASTEIGER

@<TRIPOS>ATOM
      1 C          10.7841   41.8842    8.1692 C.ar    1  UNL1        0.1659
      2 C          12.9856   42.0705    7.7326 C.ar    1  UNL1        0.0923
      3 C          13.0287   41.0751    8.7269 C.ar    1  UNL1        0.0886
      4 N          11.7297   42.5078    7.4350 N.ar    1  UNL1       -0.2238
      5 S          11.4455   40.7572    9.2165 S.2     1  UNL1       -0.0481
      6 C          14.1622   42.6735    7.0684 C.ar    1  UNL1        0.0183
      7 C          14.0196   43.2472    5.7961 C.ar    1  UNL1        0.0015
      8 C          15.1085   43.8567    5.1661 C.ar    1  UNL1        0.0000
      9 C          16.3483   43.9072    5.8079 C.ar    1  UNL1        0.0000
     10 C          16.4978   43.3527    7.0814 C.ar    1  UNL1        0.0000
     11 C          15.4081   42.7441    7.7104 C.ar    1  UNL1        0.0015
     12 C           8.6470   43.0410    8.9051 C.2     1  UNL1        0.2720
     13 N           9.3815   42.1447    8.0632 N.am    1  UNL1       -0.2593
     14 O           9.2253   43.6775    9.8272 O.2     1  UNL1       -0.2680
     15 H           8.8831   41.6719    7.3579 H       1  UNL1        0.1571
     16 C           4.1356   44.8754    7.8064 C.3     1  UNL1        0.0754
     17 C           5.2687   44.0059    8.2176 C.ar    1  UNL1        0.1550
     18 C           6.5979   44.3788    8.2398 C.ar    1  UNL1        0.0627
     19 C           7.2068   43.2181    8.6895 C.ar    1  UNL1        0.1761
     20 N           6.2945   42.2520    8.9090 N.ar    1  UNL1       -0.0727
     21 O           5.1386   42.7640    8.6135 O.2     1  UNL1       -0.3576
     22 C          14.1998   40.2849    9.1614 C.2     1  UNL1        0.2030
     23 O          15.3473   40.8009    9.0750 O.2     1  UNL1       -0.2860
     24 C          14.0669   38.8985    9.6616 C.ar    1  UNL1        0.0395
     25 C          13.9045   37.8400    8.7544 C.ar    1  UNL1        0.0032
     26 C          13.7963   36.5232    9.2114 C.ar    1  UNL1        0.0001
     27 C          13.8548   36.2521   10.5805 C.ar    1  UNL1        0.0000
     28 C          14.0240   37.2968   11.4923 C.ar    1  UNL1        0.0001
     29 C          14.1323   38.6129   11.0345 C.ar    1  UNL1        0.0032
@<TRIPOS>BOND
     1    16    17    1
     2    17    21   ar
     3    18    19   ar
     4    19    12    1
     5    12    13   am
     6     1     5   ar
     7     2     4   ar
     8     2     6    1
     9     3     5   ar
    10     3    22    1
    11    22    24    1
    12    25    26   ar
    13    27    28   ar
    14    29    24   ar
    15     7     8   ar
    16     9    10   ar
    17    11     6   ar
    18    20    21   ar
    19    13     1    1
    20    17    18   ar
    21    19    20   ar
    22    12    14    2
    23     1     4   ar
    24     2     3   ar
    25    22    23    2
    26    24    25   ar
    27    26    27   ar
    28    28    29   ar
    29     6     7   ar
    30     8     9   ar
    31    10    11   ar
    32    13    15    1
@<TRIPOS>MOLECULE
MolPort-009-692-523 9203998 CSSS00106609010 MCULE-8697503382 PubChem-16953668 UXYJRMSYGVHNHR-UHFFFAOYSA-N ZINC000009203998 ZINC09203998
 29 32 0 0 0
SMALL
GASTEIGER

@<TRIPOS>ATOM
      1 C          10.3512   41.3691    8.7629 C.ar    1  UNL1        0.1659
      2 C          12.1678   40.2212    9.4371 C.ar    1  UNL1        0.0923
      3 C          12.7543   41.0188    8.4364 C.ar    1  UNL1        0.0886
      4 N          10.8316   40.4300    9.6051 N.ar    1  UNL1       -0.2238
      5 S          11.5486   41.9958    7.7739 S.2     1  UNL1       -0.0481
      6 C          12.8675   39.1898   10.2343 C.ar    1  UNL1        0.0183
      7 C          12.7420   37.8383    9.8795 C.ar    1  UNL1        0.0015
      8 C          13.4248   36.8502   10.5947 C.ar    1  UNL1        0.0000
      9 C          14.2484   37.2061   11.6655 C.ar    1  UNL1        0.0000
     10 C          14.3929   38.5502   12.0178 C.ar    1  UNL1        0.0000
     11 C          13.7100   39.5372   11.3016 C.ar    1  UNL1        0.0015
     12 C           8.5011   43.0567    9.1822 C.2     1  UNL1        0.2720
     13 N           8.9845   41.7895    8.7217 N.am    1  UNL1       -0.2593
     14 O           9.2919   43.9084    9.6711 O.2     1  UNL1       -0.2680
     15 H           8.3261   41.1599    8.3484 H       1  UNL1        0.1571
     16 C           3.5143   42.8216    9.2304 C.3     1  UNL1        0.0754
     17 C           4.9279   43.2631    9.1033 C.ar    1  UNL1        0.1550
     18 C           6.0374   42.4778    9.3453 C.ar    1  UNL1        0.0627
     19 C           7.0700   43.3638    9.0826 C.ar    1  UNL1        0.1761
     20 N           6.5882   44.5671    8.7169 N.ar    1  UNL1       -0.0727
     21 O           5.2940   44.4676    8.7412 O.2     1  UNL1       -0.3576
     22 C          14.1912   41.1527    8.1172 C.2     1  UNL1        0.2030
     23 O          14.9967   40.2928    8.5671 O.2     1  UNL1       -0.2860
     24 C          14.7133   42.2818    7.3156 C.ar    1  UNL1        0.0395
     25 C          13.9512   42.7993    6.2567 C.ar    1  UNL1        0.0032
     26 C          14.4233   43.8776    5.5025 C.ar    1  UNL1        0.0001
     27 C          15.6603   44.4522    5.8038 C.ar    1  UNL1        0.0000
     28 C          16.4241   43.9505    6.8605 C.ar    1  UNL1        0.0001
     29 C          15.9513   42.8726    7.6141 C.ar    1  UNL1        0.0032
@<TRIPOS>BOND
     1    16    17    1
     2    17    21   ar
     3    18    19   ar
     4    19    12    1
     5    12    13   am
     6     1     5   ar
     7     2     4   ar
     8     2     6    1
     9     3     5   ar
    10     3    22    1
    11    22    24    1
    12    25    26   ar
    13    27    28   ar
    14    29    24   ar
    15     7     8   ar
    16     9    10   ar
    17    11     6   ar
    18    20    21   ar
    19    13     1    1
    20    17    18   ar
    21    19    20   ar
    22    12    14    2
    23     1     4   ar
    24     2     3   ar
    25    22    23    2
    26    24    25   ar
    27    26    27   ar
    28    28    29   ar
    29     6     7   ar
    30     8     9   ar
    31    10    11   ar
    32    13    15    1
