@<TRIPOS>MOLECULE
MolPort-004-984-142 CSSS00159487125 MCULE-1343284236 PubChem-45161558
 36 40 0 0 0
SMALL
GASTEIGER

@<TRIPOS>ATOM
      1 C           7.5505   41.9402   10.4559 C.ar    1  UNL1        0.1514
      2 C           8.7139   41.4491    9.8570 C.ar    1  UNL1        0.0757
      3 C           8.6685   41.8509    8.5333 C.ar    1  UNL1        0.0505
      4 C           9.4875   41.5859    7.4404 C.ar    1  UNL1        0.0202
      5 C           9.1066   42.1216    6.1934 C.ar    1  UNL1        0.0645
      6 C           7.9166   42.8753    6.0948 C.ar    1  UNL1        0.1147
      7 C           7.5181   42.5774    8.3894 C.ar    1  UNL1        0.1453
      8 N           7.1319   43.0886    7.1928 N.ar    1  UNL1       -0.2254
      9 N           6.8299   42.6480    9.5437 N.ar    1  UNL1       -0.3040
     10 C          11.0868   40.8169   10.5505 C.2     1  UNL1        0.2266
     11 C          11.9840   39.7130   10.9789 C.3     1  UNL1        0.0949
     12 O          11.5743   41.9518   10.3075 O.2     1  UNL1       -0.2748
     13 N           9.6764   40.5893   10.4834 N.am    1  UNL1       -0.2825
     14 H           9.3351   39.7680   10.9054 H       1  UNL1        0.1549
     15 C           7.1581   41.7244   11.8657 C.2     1  UNL1        0.3587
     16 O           6.0708   41.1475   12.1407 O.2     1  UNL1       -0.2432
     17 C           8.8063   41.2744   13.6390 C.3     1  UNL1        0.2560
     18 O           7.9928   42.1675   12.8935 O.3     1  UNL1       -0.4403
     19 N           9.8989   41.9095    5.0234 N.pl3   1  UNL1       -0.3274
     20 H           9.8086   42.5397    4.2724 H       1  UNL1        0.1472
     21 C          10.8332   40.8017    4.8945 C.3     1  UNL1        0.1209
     22 C          11.9522   40.9777    5.8575 C.ar    1  UNL1        0.0269
     23 C          12.8897   42.0079    5.8054 C.ar    1  UNL1        0.0043
     24 C          13.8466   41.8719    6.8145 C.ar    1  UNL1        0.0062
     25 C          14.9165   42.7385    7.0395 C.ar    1  UNL1        0.0005
     26 C          15.7979   42.4596    8.0974 C.ar    1  UNL1        0.0000
     27 C          15.6031   41.3267    8.9108 C.ar    1  UNL1        0.0005
     28 C          14.5249   40.4593    8.6761 C.ar    1  UNL1        0.0065
     29 C          13.6648   40.7585    7.6227 C.ar    1  UNL1        0.0292
     30 S          12.3143   39.9055    7.1144 S.2     1  UNL1       -0.0896
     31 C           5.5276   43.2804    9.7253 C.3     1  UNL1        0.1371
     32 C           4.4152   42.3477    9.2719 C.3     1  UNL1        0.1378
     33 C           3.1331   42.7008    9.9860 C.3     1  UNL1        0.0341
     34 C           2.5165   41.3708   10.2977 C.3     1  UNL1        0.0346
     35 C           3.5060   40.3714    9.7465 C.3     1  UNL1        0.1422
     36 O           4.7389   41.0168    9.5755 O.3     1  UNL1       -0.3543
@<TRIPOS>BOND
     1    17    18    1
     2    15    18    1
     3    15     1    1
     4     2    13    1
     5     2     3   ar
     6    11    10    1
     7     4     5   ar
     8     5    19    1
     9    21    19    1
    10    21    22    1
    11    22    30   ar
    12    23    24   ar
    13    25    26   ar
    14    27    28   ar
    15    29    30   ar
    16    29    24   ar
    17     6     8   ar
    18     7     9   ar
    19     7     3   ar
    20    31     9    1
    21    32    31    1
    22    32    33    1
    23    32    36    1
    24    33    34    1
    25    34    35    1
    26    35    36    1
    27    13    10   am
    28     9     1   ar
    29    15    16    2
    30     1     2   ar
    31    10    12    2
    32     3     4   ar
    33     5     6   ar
    34    22    23   ar
    35    24    25   ar
    36    26    27   ar
    37    28    29   ar
    38     7     8   ar
    39    13    14    1
    40    19    20    1
@<TRIPOS>MOLECULE
MolPort-004-984-142 CSSS00159487125 MCULE-1343284236 PubChem-45161558
 36 40 0 0 0
SMALL
GASTEIGER

@<TRIPOS>ATOM
      1 C          14.4611   41.3054    7.9923 C.ar    1  UNL1        0.1514
      2 C          13.6288   42.2724    7.4217 C.ar    1  UNL1        0.0757
      3 C          12.4460   41.6277    7.1037 C.ar    1  UNL1        0.0505
      4 C          11.2971   42.0429    6.4380 C.ar    1  UNL1        0.0202
      5 C          10.2812   41.0879    6.2303 C.ar    1  UNL1        0.0645
      6 C          10.4718   39.7619    6.6766 C.ar    1  UNL1        0.1147
      7 C          12.5926   40.3293    7.5093 C.ar    1  UNL1        0.1453
      8 N          11.6286   39.3958    7.3048 N.ar    1  UNL1       -0.2254
      9 N          13.8038   40.1153    8.0552 N.ar    1  UNL1       -0.3040
     10 C          14.4598   44.1016    5.8487 C.2     1  UNL1        0.2266
     11 C          15.0763   45.4502    5.7567 C.3     1  UNL1        0.0949
     12 O          14.2956   43.4234    4.8011 O.2     1  UNL1       -0.2748
     13 N          14.0046   43.6229    7.1172 N.am    1  UNL1       -0.2825
     14 H          13.9437   44.2800    7.8478 H       1  UNL1        0.1549
     15 C          15.8464   41.5362    8.4569 C.2     1  UNL1        0.3587
     16 O          16.3953   40.7203    9.2465 O.2     1  UNL1       -0.2432
     17 C          17.5588   43.2700    8.8108 C.3     1  UNL1        0.2560
     18 O          16.5441   42.6653    8.0234 O.3     1  UNL1       -0.4403
     19 N           9.0634   41.4346    5.5683 N.pl3   1  UNL1       -0.3274
     20 H           8.7865   40.9074    4.7843 H       1  UNL1        0.1472
     21 C           8.2150   42.5335    6.0034 C.3     1  UNL1        0.1209
     22 C           7.6968   42.2540    7.3686 C.ar    1  UNL1        0.0269
     23 C           8.4165   42.4496    8.5462 C.ar    1  UNL1        0.0043
     24 C           7.6789   42.0457    9.6623 C.ar    1  UNL1        0.0062
     25 C           8.1102   42.1141   10.9873 C.ar    1  UNL1        0.0005
     26 C           7.2482   41.6616   12.0001 C.ar    1  UNL1        0.0000
     27 C           5.9763   41.1487   11.6804 C.ar    1  UNL1        0.0005
     28 C           5.5513   41.0821   10.3445 C.ar    1  UNL1        0.0065
     29 C           6.4233   41.5382    9.3594 C.ar    1  UNL1        0.0292
     30 S           6.1851   41.5720    7.7004 S.2     1  UNL1       -0.0896
     31 C          14.3164   38.8315    8.5222 C.3     1  UNL1        0.1371
     32 C          13.6795   38.4558    9.8511 C.3     1  UNL1        0.1378
     33 C          13.9397   39.5433   10.8651 C.3     1  UNL1        0.0341
     34 C          14.2225   38.7942   12.1320 C.3     1  UNL1        0.0346
     35 C          14.1125   37.3423   11.7300 C.3     1  UNL1        0.1422
     36 O          14.2281   37.2588   10.3353 O.3     1  UNL1       -0.3543
@<TRIPOS>BOND
     1    17    18    1
     2    15    18    1
     3    15     1    1
     4     2    13    1
     5     2     3   ar
     6    11    10    1
     7     4     5   ar
     8     5    19    1
     9    21    19    1
    10    21    22    1
    11    22    30   ar
    12    23    24   ar
    13    25    26   ar
    14    27    28   ar
    15    29    30   ar
    16    29    24   ar
    17     6     8   ar
    18     7     9   ar
    19     7     3   ar
    20    31     9    1
    21    32    31    1
    22    32    33    1
    23    32    36    1
    24    33    34    1
    25    34    35    1
    26    35    36    1
    27    13    10   am
    28     9     1   ar
    29    15    16    2
    30     1     2   ar
    31    10    12    2
    32     3     4   ar
    33     5     6   ar
    34    22    23   ar
    35    24    25   ar
    36    26    27   ar
    37    28    29   ar
    38     7     8   ar
    39    13    14    1
    40    19    20    1
@<TRIPOS>MOLECULE
MolPort-004-984-142 CSSS00159487125 MCULE-1343284236 PubChem-45161558
 36 40 0 0 0
SMALL
GASTEIGER

@<TRIPOS>ATOM
      1 C          10.6720   39.9308    6.6279 C.ar    1  UNL1        0.1514
      2 C           9.6806   40.7409    7.1883 C.ar    1  UNL1        0.0757
      3 C           9.9932   40.8644    8.5310 C.ar    1  UNL1        0.0505
      4 C           9.3337   41.4626    9.5999 C.ar    1  UNL1        0.0202
      5 C           9.9206   41.3479   10.8765 C.ar    1  UNL1        0.0645
      6 C          11.1233   40.6233   11.0262 C.ar    1  UNL1        0.1147
      7 C          11.1515   40.1624    8.7240 C.ar    1  UNL1        0.1453
      8 N          11.7215   40.0326    9.9491 N.ar    1  UNL1       -0.2254
      9 N          11.5819   39.5943    7.5825 N.ar    1  UNL1       -0.3040
     10 C           7.8068   42.4299    6.8044 C.2     1  UNL1        0.2266
     11 C           6.4639   42.6545    6.2100 C.3     1  UNL1        0.0949
     12 O           8.3284   43.3300    7.5131 O.2     1  UNL1       -0.2748
     13 N           8.5120   41.2213    6.5088 N.am    1  UNL1       -0.2825
     14 H           8.1639   40.6687    5.7721 H       1  UNL1        0.1549
     15 C          10.7266   39.5010    5.2135 C.2     1  UNL1        0.3587
     16 O          11.3148   40.2143    4.3557 O.2     1  UNL1       -0.2432
     17 C          10.0367   37.9071    3.4680 C.3     1  UNL1        0.2560
     18 O          10.1184   38.3047    4.8283 O.3     1  UNL1       -0.4403
     19 N           9.3164   41.9450   12.0254 N.pl3   1  UNL1       -0.3274
     20 H           9.7057   42.7746   12.3851 H       1  UNL1        0.1472
     21 C           8.1505   41.3791   12.6865 C.3     1  UNL1        0.1209
     22 C           6.9435   41.6022   11.8476 C.ar    1  UNL1        0.0269
     23 C           5.8391   40.7528   11.8040 C.ar    1  UNL1        0.0043
     24 C           4.8905   41.2042   10.8825 C.ar    1  UNL1        0.0062
     25 C           3.6721   40.5844   10.6037 C.ar    1  UNL1        0.0005
     26 C           2.8267   41.1634    9.6426 C.ar    1  UNL1        0.0000
     27 C           3.2055   42.3441    8.9752 C.ar    1  UNL1        0.0005
     28 C           4.4339   42.9599    9.2609 C.ar    1  UNL1        0.0065
     29 C           5.2531   42.3675   10.2184 C.ar    1  UNL1        0.0292
     30 S           6.7599   42.8751   10.7493 S.2     1  UNL1       -0.0896
     31 C          12.7410   38.7184    7.4475 C.3     1  UNL1        0.1371
     32 C          13.0615   38.0512    8.7759 C.3     1  UNL1        0.1378
     33 C          14.4285   37.4147    8.7084 C.3     1  UNL1        0.0341
     34 C          14.2590   36.1188    9.4420 C.3     1  UNL1        0.0346
     35 C          12.8059   36.1202    9.8545 C.3     1  UNL1        0.1422
     36 O          12.1206   37.0500    9.0598 O.3     1  UNL1       -0.3543
@<TRIPOS>BOND
     1    17    18    1
     2    15    18    1
     3    15     1    1
     4     2    13    1
     5     2     3   ar
     6    11    10    1
     7     4     5   ar
     8     5    19    1
     9    21    19    1
    10    21    22    1
    11    22    30   ar
    12    23    24   ar
    13    25    26   ar
    14    27    28   ar
    15    29    30   ar
    16    29    24   ar
    17     6     8   ar
    18     7     9   ar
    19     7     3   ar
    20    31     9    1
    21    32    31    1
    22    32    33    1
    23    32    36    1
    24    33    34    1
    25    34    35    1
    26    35    36    1
    27    13    10   am
    28     9     1   ar
    29    15    16    2
    30     1     2   ar
    31    10    12    2
    32     3     4   ar
    33     5     6   ar
    34    22    23   ar
    35    24    25   ar
    36    26    27   ar
    37    28    29   ar
    38     7     8   ar
    39    13    14    1
    40    19    20    1
@<TRIPOS>MOLECULE
MolPort-004-984-142 CSSS00159487125 MCULE-1343284236 PubChem-45161558
 36 40 0 0 0
SMALL
GASTEIGER

@<TRIPOS>ATOM
      1 C          11.0215   41.5217    8.6675 C.ar    1  UNL1        0.1514
      2 C          11.0684   40.8938    9.9153 C.ar    1  UNL1        0.0757
      3 C          12.3860   40.5180   10.1115 C.ar    1  UNL1        0.0505
      4 C          13.0167   39.7842   11.1110 C.ar    1  UNL1        0.0202
      5 C          14.3959   39.5316   10.9647 C.ar    1  UNL1        0.0645
      6 C          15.0713   40.0039    9.8181 C.ar    1  UNL1        0.1147
      7 C          13.0778   40.9468    9.0118 C.ar    1  UNL1        0.1453
      8 N          14.4029   40.7001    8.8509 N.ar    1  UNL1       -0.2254
      9 N          12.2706   41.5622    8.1283 N.ar    1  UNL1       -0.3040
     10 C           9.2851   41.5027   11.6357 C.2     1  UNL1        0.2266
     11 C           8.3110   40.9783   12.6274 C.3     1  UNL1        0.0949
     12 O           9.4818   42.7436   11.5579 O.2     1  UNL1       -0.2748
     13 N           9.9352   40.5945   10.7424 N.am    1  UNL1       -0.2825
     14 H           9.5720   39.6809   10.6904 H       1  UNL1        0.1549
     15 C           9.8019   42.0601    8.0267 C.2     1  UNL1        0.3587
     16 O           9.2420   43.0898    8.4923 O.2     1  UNL1       -0.2432
     17 C          10.0551   40.5893    6.0680 C.3     1  UNL1        0.2560
     18 O           9.2671   41.4206    6.9066 O.3     1  UNL1       -0.4403
     19 N          15.1231   38.7984   11.9521 N.pl3   1  UNL1       -0.3274
     20 H          15.4432   39.2748   12.7520 H       1  UNL1        0.1472
     21 C          15.4108   37.3778   11.8259 C.3     1  UNL1        0.1209
     22 C          16.3716   37.1599   10.7125 C.ar    1  UNL1        0.0269
     23 C          16.0863   36.4547    9.5444 C.ar    1  UNL1        0.0043
     24 C          17.2076   36.3774    8.7141 C.ar    1  UNL1        0.0062
     25 C          17.2542   35.7450    7.4714 C.ar    1  UNL1        0.0005
     26 C          18.4644   35.7511    6.7579 C.ar    1  UNL1        0.0000
     27 C          19.6052   36.3822    7.2901 C.ar    1  UNL1        0.0005
     28 C          19.5496   37.0146    8.5419 C.ar    1  UNL1        0.0065
     29 C          18.3383   36.9960    9.2285 C.ar    1  UNL1        0.0292
     30 S          17.9877   37.6582   10.7280 S.2     1  UNL1       -0.0896
     31 C          12.6663   42.0726    6.8199 C.3     1  UNL1        0.1371
     32 C          13.5563   43.2962    6.9730 C.3     1  UNL1        0.1378
     33 C          13.7032   43.9880    5.6394 C.3     1  UNL1        0.0341
     34 C          15.1426   44.4039    5.6061 C.3     1  UNL1        0.0346
     35 C          15.6980   43.9023    6.9182 C.3     1  UNL1        0.1422
     36 O          14.8320   42.9202    7.4194 O.3     1  UNL1       -0.3543
@<TRIPOS>BOND
     1    17    18    1
     2    15    18    1
     3    15     1    1
     4     2    13    1
     5     2     3   ar
     6    11    10    1
     7     4     5   ar
     8     5    19    1
     9    21    19    1
    10    21    22    1
    11    22    30   ar
    12    23    24   ar
    13    25    26   ar
    14    27    28   ar
    15    29    30   ar
    16    29    24   ar
    17     6     8   ar
    18     7     9   ar
    19     7     3   ar
    20    31     9    1
    21    32    31    1
    22    32    33    1
    23    32    36    1
    24    33    34    1
    25    34    35    1
    26    35    36    1
    27    13    10   am
    28     9     1   ar
    29    15    16    2
    30     1     2   ar
    31    10    12    2
    32     3     4   ar
    33     5     6   ar
    34    22    23   ar
    35    24    25   ar
    36    26    27   ar
    37    28    29   ar
    38     7     8   ar
    39    13    14    1
    40    19    20    1
@<TRIPOS>MOLECULE
MolPort-004-984-142 CSSS00159487125 MCULE-1343284236 PubChem-45161558
 36 40 0 0 0
SMALL
GASTEIGER

@<TRIPOS>ATOM
      1 C           8.6200   41.3734   10.4573 C.ar    1  UNL1        0.1514
      2 C           9.9794   41.3676   10.1327 C.ar    1  UNL1        0.0757
      3 C          10.0524   41.5595    8.7639 C.ar    1  UNL1        0.0505
      4 C          11.1166   41.5524    7.8679 C.ar    1  UNL1        0.0202
      5 C          10.8209   41.7283    6.5008 C.ar    1  UNL1        0.0645
      6 C           9.4771   41.8795    6.0941 C.ar    1  UNL1        0.1147
      7 C           8.7644   41.6983    8.3240 C.ar    1  UNL1        0.1453
      8 N           8.4633   41.8556    7.0098 N.ar    1  UNL1       -0.2254
      9 N           7.8824   41.5945    9.3350 N.ar    1  UNL1       -0.3040
     10 C          12.0643   40.0876   10.8577 C.2     1  UNL1        0.2266
     11 C          12.9377   39.7173   12.0011 C.3     1  UNL1        0.0949
     12 O          12.2632   39.5620    9.7314 O.2     1  UNL1       -0.2748
     13 N          11.0532   41.0826   11.0402 N.am    1  UNL1       -0.2825
     14 H          11.0983   41.6207   11.8634 H       1  UNL1        0.1549
     15 C           8.0638   41.1691   11.8127 C.2     1  UNL1        0.3587
     16 O           6.8578   41.4495   12.0528 O.2     1  UNL1       -0.2432
     17 C           8.9899   41.3143   14.0897 C.3     1  UNL1        0.2560
     18 O           8.8804   40.6702   12.8294 O.3     1  UNL1       -0.4403
     19 N          11.8559   41.7484    5.5160 N.pl3   1  UNL1       -0.3274
     20 H          12.0897   40.9074    5.0608 H       1  UNL1        0.1472
     21 C          12.5791   42.9589    5.1574 C.3     1  UNL1        0.1209
     22 C          13.8555   43.0216    5.9172 C.ar    1  UNL1        0.0269
     23 C          14.2501   42.0978    6.8836 C.ar    1  UNL1        0.0043
     24 C          15.4732   42.4569    7.4562 C.ar    1  UNL1        0.0062
     25 C          16.1446   41.7425    8.4488 C.ar    1  UNL1        0.0005
     26 C          17.3687   42.2405    8.9256 C.ar    1  UNL1        0.0000
     27 C          17.9030   43.4374    8.4108 C.ar    1  UNL1        0.0005
     28 C          17.2199   44.1504    7.4134 C.ar    1  UNL1        0.0065
     29 C          16.0096   43.6352    6.9566 C.ar    1  UNL1        0.0292
     30 S          14.9875   44.2717    5.7904 S.2     1  UNL1       -0.0896
     31 C           6.4291   41.6201    9.2078 C.3     1  UNL1        0.1371
     32 C           5.9252   43.0538    9.1490 C.3     1  UNL1        0.1378
     33 C           4.4658   43.0959    9.5324 C.3     1  UNL1        0.0341
     34 C           3.8730   44.0936    8.5841 C.3     1  UNL1        0.0346
     35 C           5.0423   44.5263    7.7313 C.3     1  UNL1        0.1422
     36 O           6.0562   43.5652    7.8492 O.3     1  UNL1       -0.3543
@<TRIPOS>BOND
     1    17    18    1
     2    15    18    1
     3    15     1    1
     4     2    13    1
     5     2     3   ar
     6    11    10    1
     7     4     5   ar
     8     5    19    1
     9    21    19    1
    10    21    22    1
    11    22    30   ar
    12    23    24   ar
    13    25    26   ar
    14    27    28   ar
    15    29    30   ar
    16    29    24   ar
    17     6     8   ar
    18     7     9   ar
    19     7     3   ar
    20    31     9    1
    21    32    31    1
    22    32    33    1
    23    32    36    1
    24    33    34    1
    25    34    35    1
    26    35    36    1
    27    13    10   am
    28     9     1   ar
    29    15    16    2
    30     1     2   ar
    31    10    12    2
    32     3     4   ar
    33     5     6   ar
    34    22    23   ar
    35    24    25   ar
    36    26    27   ar
    37    28    29   ar
    38     7     8   ar
    39    13    14    1
    40    19    20    1
@<TRIPOS>MOLECULE
MolPort-004-984-142 CSSS00159487125 MCULE-1343284236 PubChem-45161558
 36 40 0 0 0
SMALL
GASTEIGER

@<TRIPOS>ATOM
      1 C          15.4319   40.9921    8.9009 C.ar    1  UNL1        0.1514
      2 C          14.6221   41.4433    7.8550 C.ar    1  UNL1        0.0757
      3 C          13.3990   40.8147    8.0121 C.ar    1  UNL1        0.0505
      4 C          12.2441   40.7953    7.2367 C.ar    1  UNL1        0.0202
      5 C          11.1779   39.9827    7.6728 C.ar    1  UNL1        0.0645
      6 C          11.3258   39.2131    8.8475 C.ar    1  UNL1        0.1147
      7 C          13.5025   40.0441    9.1378 C.ar    1  UNL1        0.1453
      8 N          12.4893   39.2471    9.5629 N.ar    1  UNL1       -0.2254
      9 N          14.7240   40.1422    9.6940 N.ar    1  UNL1       -0.3040
     10 C          14.3773   43.4632    6.3153 C.2     1  UNL1        0.2266
     11 C          14.7747   44.0694    5.0184 C.3     1  UNL1        0.0949
     12 O          13.4974   44.0261    7.0177 O.2     1  UNL1       -0.2748
     13 N          15.0465   42.2855    6.7740 N.am    1  UNL1       -0.2825
     14 H          15.8737   42.0295    6.3055 H       1  UNL1        0.1549
     15 C          16.8441   41.3763    9.1157 C.2     1  UNL1        0.3587
     16 O          17.7342   40.4892    9.2218 O.2     1  UNL1       -0.2432
     17 C          17.9197   43.3864    8.1847 C.3     1  UNL1        0.2560
     18 O          17.1893   42.7262    9.2074 O.3     1  UNL1       -0.4403
     19 N           9.9512   39.9163    6.9432 N.pl3   1  UNL1       -0.3274
     20 H           9.9641   40.1196    5.9800 H       1  UNL1        0.1472
     21 C           8.6838   39.5611    7.5631 C.3     1  UNL1        0.1209
     22 C           7.8191   40.7668    7.6579 C.ar    1  UNL1        0.0269
     23 C           6.7077   40.8829    8.4911 C.ar    1  UNL1        0.0043
     24 C           6.0711   42.1145    8.3158 C.ar    1  UNL1        0.0062
     25 C           4.9343   42.5444    9.0008 C.ar    1  UNL1        0.0005
     26 C           4.4102   43.8140    8.7055 C.ar    1  UNL1        0.0000
     27 C           5.0217   44.6323    7.7362 C.ar    1  UNL1        0.0005
     28 C           6.1642   44.1910    7.0507 C.ar    1  UNL1        0.0065
     29 C           6.6650   42.9297    7.3626 C.ar    1  UNL1        0.0292
     30 S           7.9969   42.1527    6.7050 S.2     1  UNL1       -0.0896
     31 C          15.1959   39.3988   10.8574 C.3     1  UNL1        0.1371
     32 C          15.5704   37.9780   10.4650 C.3     1  UNL1        0.1378
     33 C          16.8955   37.6111   11.0881 C.3     1  UNL1        0.0341
     34 C          17.5964   36.8362   10.0135 C.3     1  UNL1        0.0346
     35 C          16.6167   36.8383    8.8638 C.3     1  UNL1        0.1422
     36 O          15.6920   37.8715    9.0715 O.3     1  UNL1       -0.3543
@<TRIPOS>BOND
     1    17    18    1
     2    15    18    1
     3    15     1    1
     4     2    13    1
     5     2     3   ar
     6    11    10    1
     7     4     5   ar
     8     5    19    1
     9    21    19    1
    10    21    22    1
    11    22    30   ar
    12    23    24   ar
    13    25    26   ar
    14    27    28   ar
    15    29    30   ar
    16    29    24   ar
    17     6     8   ar
    18     7     9   ar
    19     7     3   ar
    20    31     9    1
    21    32    31    1
    22    32    33    1
    23    32    36    1
    24    33    34    1
    25    34    35    1
    26    35    36    1
    27    13    10   am
    28     9     1   ar
    29    15    16    2
    30     1     2   ar
    31    10    12    2
    32     3     4   ar
    33     5     6   ar
    34    22    23   ar
    35    24    25   ar
    36    26    27   ar
    37    28    29   ar
    38     7     8   ar
    39    13    14    1
    40    19    20    1
@<TRIPOS>MOLECULE
MolPort-004-984-142 CSSS00159487125 MCULE-1343284236 PubChem-45161558
 36 40 0 0 0
SMALL
GASTEIGER

@<TRIPOS>ATOM
      1 C          10.7331   41.3531    8.7249 C.ar    1  UNL1        0.1514
      2 C          10.6142   40.4423    9.7783 C.ar    1  UNL1        0.0757
      3 C          11.6299   39.5175    9.6083 C.ar    1  UNL1        0.0505
      4 C          11.9551   38.3426   10.2786 C.ar    1  UNL1        0.0202
      5 C          13.0471   37.5945    9.7936 C.ar    1  UNL1        0.0645
      6 C          13.7450   38.0439    8.6513 C.ar    1  UNL1        0.1147
      7 C          12.3273   39.9093    8.4985 C.ar    1  UNL1        0.1453
      8 N          13.3726   39.1927    8.0123 N.ar    1  UNL1       -0.2254
      9 N          11.8036   41.0222    7.9523 N.ar    1  UNL1       -0.3040
     10 C           9.5059   41.1945   11.9501 C.2     1  UNL1        0.2266
     11 C           8.4959   40.8628   12.9879 C.3     1  UNL1        0.0949
     12 O          10.2634   42.1857   12.1181 O.2     1  UNL1       -0.2748
     13 N           9.5575   40.4209   10.7483 N.am    1  UNL1       -0.2825
     14 H           8.7990   39.8191   10.5705 H       1  UNL1        0.1549
     15 C           9.8336   42.5021    8.4825 C.2     1  UNL1        0.3587
     16 O           9.0597   42.5033    7.4867 O.2     1  UNL1       -0.2432
     17 C           8.6730   44.3284    9.6579 C.3     1  UNL1        0.2560
     18 O           9.8479   43.5905    9.3570 O.3     1  UNL1       -0.4403
     19 N          13.4568   36.3837   10.4319 N.pl3   1  UNL1       -0.3274
     20 H          14.0676   36.4402   11.2020 H       1  UNL1        0.1472
     21 C          13.0100   35.0707    9.9924 C.3     1  UNL1        0.1209
     22 C          14.0939   34.4066    9.2214 C.ar    1  UNL1        0.0269
     23 C          14.0825   33.0700    8.8261 C.ar    1  UNL1        0.0043
     24 C          15.2646   32.7289    8.1635 C.ar    1  UNL1        0.0062
     25 C          15.5660   31.4720    7.6382 C.ar    1  UNL1        0.0005
     26 C          16.8049   31.2876    7.0020 C.ar    1  UNL1        0.0000
     27 C          17.7219   32.3515    6.9001 C.ar    1  UNL1        0.0005
     28 C          17.4109   33.6122    7.4329 C.ar    1  UNL1        0.0065
     29 C          16.1762   33.7698    8.0570 C.ar    1  UNL1        0.0292
     30 S          15.5495   35.1462    8.7800 S.2     1  UNL1       -0.0896
     31 C          12.2550   41.6651    6.7228 C.3     1  UNL1        0.1371
     32 C          13.2899   42.7359    7.0312 C.3     1  UNL1        0.1378
     33 C          13.5460   43.5659    5.7966 C.3     1  UNL1        0.0341
     34 C          15.0269   43.7954    5.8179 C.3     1  UNL1        0.0346
     35 C          15.4918   43.0655    7.0559 C.3     1  UNL1        0.1422
     36 O          14.5000   42.1468    7.4272 O.3     1  UNL1       -0.3543
@<TRIPOS>BOND
     1    17    18    1
     2    15    18    1
     3    15     1    1
     4     2    13    1
     5     2     3   ar
     6    11    10    1
     7     4     5   ar
     8     5    19    1
     9    21    19    1
    10    21    22    1
    11    22    30   ar
    12    23    24   ar
    13    25    26   ar
    14    27    28   ar
    15    29    30   ar
    16    29    24   ar
    17     6     8   ar
    18     7     9   ar
    19     7     3   ar
    20    31     9    1
    21    32    31    1
    22    32    33    1
    23    32    36    1
    24    33    34    1
    25    34    35    1
    26    35    36    1
    27    13    10   am
    28     9     1   ar
    29    15    16    2
    30     1     2   ar
    31    10    12    2
    32     3     4   ar
    33     5     6   ar
    34    22    23   ar
    35    24    25   ar
    36    26    27   ar
    37    28    29   ar
    38     7     8   ar
    39    13    14    1
    40    19    20    1
@<TRIPOS>MOLECULE
MolPort-004-984-142 CSSS00159487125 MCULE-1343284236 PubChem-45161558
 36 40 0 0 0
SMALL
GASTEIGER

@<TRIPOS>ATOM
      1 C           8.9676   41.7892    7.5502 C.ar    1  UNL1        0.1514
      2 C           9.4520   41.7367    8.8601 C.ar    1  UNL1        0.0757
      3 C          10.6987   41.1397    8.7893 C.ar    1  UNL1        0.0505
      4 C          11.6072   40.7389    9.7637 C.ar    1  UNL1        0.0202
      5 C          12.7844   40.0936    9.3336 C.ar    1  UNL1        0.0645
      6 C          12.9855   39.8603    7.9555 C.ar    1  UNL1        0.1147
      7 C          10.9296   40.8831    7.4654 C.ar    1  UNL1        0.1453
      8 N          12.0522   40.2514    7.0374 N.ar    1  UNL1       -0.2254
      9 N           9.8956   41.2743    6.6980 N.ar    1  UNL1       -0.3040
     10 C           8.8499   41.5161   11.3299 C.2     1  UNL1        0.2266
     11 C           7.8365   41.8150   12.3744 C.3     1  UNL1        0.0949
     12 O           9.8368   40.7887   11.6152 O.2     1  UNL1       -0.2748
     13 N           8.7213   42.1121   10.0361 N.am    1  UNL1       -0.2825
     14 H           8.0723   42.8467    9.9443 H       1  UNL1        0.1549
     15 C           7.6474   42.3211    7.1475 C.2     1  UNL1        0.3587
     16 O           7.2220   42.1419    5.9738 O.2     1  UNL1       -0.2432
     17 C           6.9934   44.4351    8.2279 C.3     1  UNL1        0.2560
     18 O           6.8745   43.0293    8.0698 O.3     1  UNL1       -0.4403
     19 N          13.7762   39.6630   10.2676 N.pl3   1  UNL1       -0.3274
     20 H          13.5085   39.5108   11.2027 H       1  UNL1        0.1472
     21 C          15.1650   39.4398    9.8957 C.3     1  UNL1        0.1209
     22 C          15.6730   40.6122    9.1356 C.ar    1  UNL1        0.0269
     23 C          16.9593   41.1366    9.2516 C.ar    1  UNL1        0.0043
     24 C          17.1176   42.2691    8.4485 C.ar    1  UNL1        0.0062
     25 C          18.2848   43.0245    8.3332 C.ar    1  UNL1        0.0005
     26 C          18.2817   44.1431    7.4831 C.ar    1  UNL1        0.0000
     27 C          17.1217   44.4923    6.7651 C.ar    1  UNL1        0.0005
     28 C          15.9514   43.7274    6.8884 C.ar    1  UNL1        0.0065
     29 C          15.9806   42.6230    7.7359 C.ar    1  UNL1        0.0292
     30 S          14.7419   41.5464    8.0770 S.2     1  UNL1       -0.0896
     31 C           9.7803   41.0823    5.2562 C.3     1  UNL1        0.1371
     32 C           9.7201   39.6004    4.9198 C.3     1  UNL1        0.1378
     33 C          11.0761   39.1296    4.4527 C.3     1  UNL1        0.0341
     34 C          10.7634   38.1940    3.3245 C.3     1  UNL1        0.0346
     35 C           9.2558   38.2207    3.2351 C.3     1  UNL1        0.1422
     36 O           8.7933   39.3696    3.8922 O.3     1  UNL1       -0.3543
@<TRIPOS>BOND
     1    17    18    1
     2    15    18    1
     3    15     1    1
     4     2    13    1
     5     2     3   ar
     6    11    10    1
     7     4     5   ar
     8     5    19    1
     9    21    19    1
    10    21    22    1
    11    22    30   ar
    12    23    24   ar
    13    25    26   ar
    14    27    28   ar
    15    29    30   ar
    16    29    24   ar
    17     6     8   ar
    18     7     9   ar
    19     7     3   ar
    20    31     9    1
    21    32    31    1
    22    32    33    1
    23    32    36    1
    24    33    34    1
    25    34    35    1
    26    35    36    1
    27    13    10   am
    28     9     1   ar
    29    15    16    2
    30     1     2   ar
    31    10    12    2
    32     3     4   ar
    33     5     6   ar
    34    22    23   ar
    35    24    25   ar
    36    26    27   ar
    37    28    29   ar
    38     7     8   ar
    39    13    14    1
    40    19    20    1
@<TRIPOS>MOLECULE
MolPort-004-984-142 CSSS00159487125 MCULE-1343284236 PubChem-45161558
 36 40 0 0 0
SMALL
GASTEIGER

@<TRIPOS>ATOM
      1 C           8.9732   41.8710    9.3525 C.ar    1  UNL1        0.1514
      2 C           8.2859   41.8713   10.5694 C.ar    1  UNL1        0.0757
      3 C           6.9458   42.0236   10.2583 C.ar    1  UNL1        0.0505
      4 C           5.8096   42.1869   11.0443 C.ar    1  UNL1        0.0202
      5 C           4.5794   42.3777   10.3828 C.ar    1  UNL1        0.0645
      6 C           4.5479   42.4187    8.9717 C.ar    1  UNL1        0.1147
      7 C           6.8702   42.0814    8.8935 C.ar    1  UNL1        0.1453
      8 N           5.6950   42.2772    8.2430 N.ar    1  UNL1       -0.2254
      9 N           8.0867   41.9849    8.3261 N.ar    1  UNL1       -0.3040
     10 C           8.4438   41.0853   12.9919 C.2     1  UNL1        0.2266
     11 C           8.9937   41.3782   14.3406 C.3     1  UNL1        0.0949
     12 O           7.6358   40.1311   12.8467 O.2     1  UNL1       -0.2748
     13 N           8.8908   41.8515   11.8700 N.am    1  UNL1       -0.2825
     14 H           9.6860   42.4167   12.0024 H       1  UNL1        0.1549
     15 C          10.4406   41.7648    9.1995 C.2     1  UNL1        0.3587
     16 O          11.0985   42.7218    8.7077 O.2     1  UNL1       -0.2432
     17 C          10.6941   39.3162    9.1353 C.3     1  UNL1        0.2560
     18 O          11.0965   40.5974    9.5956 O.3     1  UNL1       -0.4403
     19 N           3.3626   42.5387   11.1143 N.pl3   1  UNL1       -0.3274
     20 H           2.7860   43.3090   10.9060 H       1  UNL1        0.1472
     21 C           2.9396   41.6129   12.1539 C.3     1  UNL1        0.1209
     22 C           1.7916   42.1914   12.9008 C.ar    1  UNL1        0.0269
     23 C           1.6903   43.5256   13.2917 C.ar    1  UNL1        0.0043
     24 C           0.5209   43.7506   14.0228 C.ar    1  UNL1        0.0062
     25 C           0.1200   44.9767   14.5539 C.ar    1  UNL1        0.0005
     26 C          -1.0861   45.0375   15.2718 C.ar    1  UNL1        0.0000
     27 C          -1.8708   43.8820   15.4508 C.ar    1  UNL1        0.0005
     28 C          -1.4589   42.6522   14.9143 C.ar    1  UNL1        0.0065
     29 C          -0.2607   42.6185   14.2057 C.ar    1  UNL1        0.0292
     30 S           0.4703   41.3020   13.4693 S.2     1  UNL1       -0.0896
     31 C           8.3749   42.0843    6.8992 C.3     1  UNL1        0.1371
     32 C           8.9981   40.7936    6.3910 C.3     1  UNL1        0.1378
     33 C          10.3273   41.0923    5.7408 C.3     1  UNL1        0.0341
     34 C          10.3518   40.1935    4.5418 C.3     1  UNL1        0.0346
     35 C           9.0285   39.4677    4.6025 C.3     1  UNL1        0.1422
     36 O           8.1645   40.1906    5.4371 O.3     1  UNL1       -0.3543
@<TRIPOS>BOND
     1    17    18    1
     2    15    18    1
     3    15     1    1
     4     2    13    1
     5     2     3   ar
     6    11    10    1
     7     4     5   ar
     8     5    19    1
     9    21    19    1
    10    21    22    1
    11    22    30   ar
    12    23    24   ar
    13    25    26   ar
    14    27    28   ar
    15    29    30   ar
    16    29    24   ar
    17     6     8   ar
    18     7     9   ar
    19     7     3   ar
    20    31     9    1
    21    32    31    1
    22    32    33    1
    23    32    36    1
    24    33    34    1
    25    34    35    1
    26    35    36    1
    27    13    10   am
    28     9     1   ar
    29    15    16    2
    30     1     2   ar
    31    10    12    2
    32     3     4   ar
    33     5     6   ar
    34    22    23   ar
    35    24    25   ar
    36    26    27   ar
    37    28    29   ar
    38     7     8   ar
    39    13    14    1
    40    19    20    1
@<TRIPOS>MOLECULE
MolPort-004-984-142 CSSS00159487125 MCULE-1343284236 PubChem-45161558
 36 40 0 0 0
SMALL
GASTEIGER

@<TRIPOS>ATOM
      1 C           7.5465   42.0510   10.4122 C.ar    1  UNL1        0.1514
      2 C           8.7641   41.6258    9.8737 C.ar    1  UNL1        0.0757
      3 C           8.7240   41.9411    8.5266 C.ar    1  UNL1        0.0505
      4 C           9.5942   41.6813    7.4727 C.ar    1  UNL1        0.0202
      5 C           9.2065   42.1057    6.1855 C.ar    1  UNL1        0.0645
      6 C           7.9608   42.7473    6.0109 C.ar    1  UNL1        0.1147
      7 C           7.5214   42.5563    8.3095 C.ar    1  UNL1        0.1453
      8 N           7.1290   42.9589    7.0740 N.ar    1  UNL1       -0.2254
      9 N           6.7961   42.6377    9.4401 N.ar    1  UNL1       -0.3040
     10 C          11.1621   41.2373   10.6546 C.2     1  UNL1        0.2266
     11 C          12.1340   40.2414   11.1750 C.3     1  UNL1        0.0949
     12 O          11.5629   42.3893   10.3437 O.2     1  UNL1       -0.2748
     13 N           9.7766   40.8913   10.5761 N.am    1  UNL1       -0.2825
     14 H           9.4918   40.0749   11.0469 H       1  UNL1        0.1549
     15 C           7.1323   41.8884   11.8229 C.2     1  UNL1        0.3587
     16 O           6.0044   41.3972   12.1007 O.2     1  UNL1       -0.2432
     17 C           8.7939   41.3570   13.5609 C.3     1  UNL1        0.2560
     18 O           7.9920   42.2869   12.8484 O.3     1  UNL1       -0.4403
     19 N          10.0478   41.8915    5.0507 N.pl3   1  UNL1       -0.3274
     20 H          10.2747   42.6611    4.4802 H       1  UNL1        0.1472
     21 C          10.5835   40.5844    4.7023 C.3     1  UNL1        0.1209
     22 C          10.8479   39.8066    5.9414 C.ar    1  UNL1        0.0269
     23 C          12.0970   39.6779    6.5464 C.ar    1  UNL1        0.0043
     24 C          12.0333   38.8420    7.6645 C.ar    1  UNL1        0.0062
     25 C          13.1067   38.5119    8.4922 C.ar    1  UNL1        0.0005
     26 C          12.8790   37.6508    9.5787 C.ar    1  UNL1        0.0000
     27 C          11.5928   37.1323    9.8230 C.ar    1  UNL1        0.0005
     28 C          10.5190   37.4686    8.9841 C.ar    1  UNL1        0.0065
     29 C          10.7702   38.3248    7.9151 C.ar    1  UNL1        0.0292
     30 S           9.6910   38.8845    6.7609 S.2     1  UNL1       -0.0896
     31 C           5.4405   43.1661    9.5500 C.3     1  UNL1        0.1371
     32 C           4.4238   42.1128    9.1379 C.3     1  UNL1        0.1378
     33 C           3.0353   42.5733    9.5105 C.3     1  UNL1        0.0341
     34 C           2.3656   41.3293   10.0108 C.3     1  UNL1        0.0346
     35 C           3.4333   40.2674    9.8935 C.3     1  UNL1        0.1422
     36 O           4.6801   40.9013    9.7973 O.3     1  UNL1       -0.3543
@<TRIPOS>BOND
     1    17    18    1
     2    15    18    1
     3    15     1    1
     4     2    13    1
     5     2     3   ar
     6    11    10    1
     7     4     5   ar
     8     5    19    1
     9    21    19    1
    10    21    22    1
    11    22    30   ar
    12    23    24   ar
    13    25    26   ar
    14    27    28   ar
    15    29    30   ar
    16    29    24   ar
    17     6     8   ar
    18     7     9   ar
    19     7     3   ar
    20    31     9    1
    21    32    31    1
    22    32    33    1
    23    32    36    1
    24    33    34    1
    25    34    35    1
    26    35    36    1
    27    13    10   am
    28     9     1   ar
    29    15    16    2
    30     1     2   ar
    31    10    12    2
    32     3     4   ar
    33     5     6   ar
    34    22    23   ar
    35    24    25   ar
    36    26    27   ar
    37    28    29   ar
    38     7     8   ar
    39    13    14    1
    40    19    20    1
