@<TRIPOS>MOLECULE
MolPort-007-723-449 6818300 CHEMBL1322076 ChemDiv-E157-5479 MCULE-2754668881 PubChem-16017379 ZINC000006818300 ZINC06818300
 28 30 0 0 0
SMALL
GASTEIGER

@<TRIPOS>ATOM
      1 C           9.6640   41.7686   10.6732 C.ar    1  UNL1        0.2593
      2 C          11.9106   41.4320    9.9395 C.ar    1  UNL1        0.1894
      3 N          10.0844   42.7166    9.8077 N.ar    1  UNL1       -0.1187
      4 N          11.3374   42.5299    9.3979 N.ar    1  UNL1       -0.1239
      5 S          10.8601   40.6214   10.9738 S.2     1  UNL1       -0.0102
      6 C          13.5891   39.7431    9.0627 C.2     1  UNL1        0.2721
      7 N          13.2444   40.9978    9.6588 N.am    1  UNL1       -0.2597
      8 O          12.6988   38.9252    8.7098 O.2     1  UNL1       -0.2707
      9 H          13.9806   41.6080    9.8933 H       1  UNL1        0.1569
     10 C          15.0240   39.3986    8.8513 C.3     1  UNL1        0.2897
     11 O          15.8630   40.4440    9.3337 O.3     1  UNL1       -0.4656
     12 C          16.1952   41.5747    8.5791 C.ar    1  UNL1        0.1393
     13 C          17.4251   42.2021    8.8062 C.ar    1  UNL1        0.0369
     14 C          17.7873   43.3339    8.0695 C.ar    1  UNL1        0.0031
     15 C          16.9190   43.8456    7.1011 C.ar    1  UNL1        0.0002
     16 C          15.6877   43.2265    6.8697 C.ar    1  UNL1        0.0031
     17 C          15.3256   42.0947    7.6060 C.ar    1  UNL1        0.0369
     18 S           8.0548   41.7277   11.3634 S.O2    1  UNL1        0.1010
     19 O           7.9867   40.6161   12.3730 O.2     1  UNL1       -0.1477
     20 O           7.7590   43.0301   12.0527 O.2     1  UNL1       -0.1477
     21 C           7.3719   41.0471    8.7969 C.3     1  UNL1        0.1392
     22 N           6.8849   41.4665   10.1040 N.pl3   1  UNL1       -0.1870
     23 C           5.4754   41.6733   10.3279 C.ar    1  UNL1        0.0689
     24 C           4.7313   42.5219    9.4912 C.ar    1  UNL1        0.0161
     25 C           3.3648   42.7188    9.7080 C.ar    1  UNL1        0.0013
     26 C           2.7250   42.0689   10.7657 C.ar    1  UNL1        0.0001
     27 C           3.4516   41.2226   11.6063 C.ar    1  UNL1        0.0013
     28 C           4.8182   41.0264   11.3888 C.ar    1  UNL1        0.0161
@<TRIPOS>BOND
     1    21    22    1
     2    24    25   ar
     3    26    27   ar
     4    28    23   ar
     5     1     5   ar
     6     2     7    1
     7     2     5   ar
     8    10     6    1
     9    10    11    1
    10    12    11    1
    11    13    14   ar
    12    15    16   ar
    13    17    12   ar
    14    22    23    1
    15     3     4   ar
    16     7     6   am
    17    18    22    1
    18    18     1    1
    19    23    24   ar
    20    25    26   ar
    21    27    28   ar
    22     1     3   ar
    23     2     4   ar
    24     6     8    2
    25    12    13   ar
    26    14    15   ar
    27    16    17   ar
    28    18    19    2
    29    18    20    2
    30     7     9    1
@<TRIPOS>MOLECULE
MolPort-007-723-449 6818300 CHEMBL1322076 ChemDiv-E157-5479 MCULE-2754668881 PubChem-16017379 ZINC000006818300 ZINC06818300
 28 30 0 0 0
SMALL
GASTEIGER

@<TRIPOS>ATOM
      1 C          13.0407   39.1103    9.5085 C.ar    1  UNL1        0.2593
      2 C          10.8240   39.9662    9.2800 C.ar    1  UNL1        0.1894
      3 N          12.4687   38.7865    8.3284 N.ar    1  UNL1       -0.1187
      4 N          11.2322   39.2633    8.2000 N.ar    1  UNL1       -0.1239
      5 S          12.0107   40.0324   10.4706 S.2     1  UNL1       -0.0102
      6 C           9.3312   42.0028    9.5303 C.2     1  UNL1        0.2721
      7 N           9.5438   40.5937    9.3962 N.am    1  UNL1       -0.2597
      8 O          10.2987   42.8090    9.5254 O.2     1  UNL1       -0.2707
      9 H           8.7491   40.0127    9.3828 H       1  UNL1        0.1569
     10 C           7.9431   42.5269    9.6738 C.3     1  UNL1        0.2897
     11 O           7.0056   41.4545    9.6919 O.3     1  UNL1       -0.4656
     12 C           5.6582   41.6154   10.0339 C.ar    1  UNL1        0.1393
     13 C           4.7834   42.1713    9.0939 C.ar    1  UNL1        0.0369
     14 C           3.4314   42.3457    9.4041 C.ar    1  UNL1        0.0031
     15 C           2.9467   41.9657   10.6587 C.ar    1  UNL1        0.0002
     16 C           3.8142   41.4120   11.6043 C.ar    1  UNL1        0.0031
     17 C           5.1660   41.2372   11.2942 C.ar    1  UNL1        0.0369
     18 S          14.6707   38.6521    9.9565 S.O2    1  UNL1        0.1010
     19 O          15.6432   39.4206    9.1061 O.2     1  UNL1       -0.1477
     20 O          14.9185   38.9851   11.4011 O.2     1  UNL1       -0.1477
     21 C          13.9356   36.0410   10.3550 C.3     1  UNL1        0.1392
     22 N          14.8846   36.9433    9.7170 N.pl3   1  UNL1       -0.1870
     23 C          15.9740   36.4216    8.9293 C.ar    1  UNL1        0.0689
     24 C          15.7367   35.8247    7.6799 C.ar    1  UNL1        0.0161
     25 C          16.7942   35.3222    6.9168 C.ar    1  UNL1        0.0013
     26 C          18.1036   35.4104    7.3946 C.ar    1  UNL1        0.0001
     27 C          18.3551   36.0007    8.6351 C.ar    1  UNL1        0.0013
     28 C          17.2969   36.5027    9.3978 C.ar    1  UNL1        0.0161
@<TRIPOS>BOND
     1    21    22    1
     2    24    25   ar
     3    26    27   ar
     4    28    23   ar
     5     1     5   ar
     6     2     7    1
     7     2     5   ar
     8    10     6    1
     9    10    11    1
    10    12    11    1
    11    13    14   ar
    12    15    16   ar
    13    17    12   ar
    14    22    23    1
    15     3     4   ar
    16     7     6   am
    17    18    22    1
    18    18     1    1
    19    23    24   ar
    20    25    26   ar
    21    27    28   ar
    22     1     3   ar
    23     2     4   ar
    24     6     8    2
    25    12    13   ar
    26    14    15   ar
    27    16    17   ar
    28    18    19    2
    29    18    20    2
    30     7     9    1
@<TRIPOS>MOLECULE
MolPort-007-723-449 6818300 CHEMBL1322076 ChemDiv-E157-5479 MCULE-2754668881 PubChem-16017379 ZINC000006818300 ZINC06818300
 28 30 0 0 0
SMALL
GASTEIGER

@<TRIPOS>ATOM
      1 C           8.7265   41.0193    6.5951 C.ar    1  UNL1        0.2593
      2 C           6.7980   42.4018    6.8560 C.ar    1  UNL1        0.1894
      3 N           8.7715   42.1366    5.8374 N.ar    1  UNL1       -0.1187
      4 N           7.6962   42.9084    5.9821 N.ar    1  UNL1       -0.1239
      5 S           7.3131   40.9388    7.5075 S.2     1  UNL1       -0.0102
      6 C           5.3786   43.9197    8.3119 C.2     1  UNL1        0.2721
      7 N           5.5633   43.0363    7.2010 N.am    1  UNL1       -0.2597
      8 O           6.3401   44.2250    9.0659 O.2     1  UNL1       -0.2707
      9 H           4.7817   42.8515    6.6316 H       1  UNL1        0.1569
     10 C           4.0286   44.4923    8.5800 C.3     1  UNL1        0.2897
     11 O           3.0906   43.4530    8.8432 O.3     1  UNL1       -0.4656
     12 C           3.2882   42.4655    9.8149 C.ar    1  UNL1        0.1393
     13 C           3.8992   41.2629    9.4429 C.ar    1  UNL1        0.0369
     14 C           4.1110   40.2560   10.3895 C.ar    1  UNL1        0.0031
     15 C           3.7109   40.4466   11.7150 C.ar    1  UNL1        0.0002
     16 C           3.0977   41.6437   12.0945 C.ar    1  UNL1        0.0031
     17 C           2.8861   42.6507   11.1482 C.ar    1  UNL1        0.0369
     18 S          10.0067   39.8249    6.6422 S.O2    1  UNL1        0.1010
     19 O           9.3984   38.4550    6.5288 O.2     1  UNL1       -0.1477
     20 O          10.9482   40.0363    5.4898 O.2     1  UNL1       -0.1477
     21 C          10.8960   41.2656    8.7986 C.3     1  UNL1        0.1392
     22 N          10.8862   39.9689    8.1351 N.pl3   1  UNL1       -0.1870
     23 C          11.6033   38.8526    8.6999 C.ar    1  UNL1        0.0689
     24 C          12.9773   38.6847    8.4596 C.ar    1  UNL1        0.0161
     25 C          13.6711   37.6037    9.0102 C.ar    1  UNL1        0.0013
     26 C          12.9984   36.6761    9.8087 C.ar    1  UNL1        0.0001
     27 C          11.6325   36.8294   10.0562 C.ar    1  UNL1        0.0013
     28 C          10.9393   37.9107    9.5049 C.ar    1  UNL1        0.0161
@<TRIPOS>BOND
     1    21    22    1
     2    24    25   ar
     3    26    27   ar
     4    28    23   ar
     5     1     5   ar
     6     2     7    1
     7     2     5   ar
     8    10     6    1
     9    10    11    1
    10    12    11    1
    11    13    14   ar
    12    15    16   ar
    13    17    12   ar
    14    22    23    1
    15     3     4   ar
    16     7     6   am
    17    18    22    1
    18    18     1    1
    19    23    24   ar
    20    25    26   ar
    21    27    28   ar
    22     1     3   ar
    23     2     4   ar
    24     6     8    2
    25    12    13   ar
    26    14    15   ar
    27    16    17   ar
    28    18    19    2
    29    18    20    2
    30     7     9    1
@<TRIPOS>MOLECULE
MolPort-007-723-449 6818300 CHEMBL1322076 ChemDiv-E157-5479 MCULE-2754668881 PubChem-16017379 ZINC000006818300 ZINC06818300
 28 30 0 0 0
SMALL
GASTEIGER

@<TRIPOS>ATOM
      1 C           9.3301   41.7911   10.8925 C.ar    1  UNL1        0.2593
      2 C          11.5218   41.5057    9.9905 C.ar    1  UNL1        0.1894
      3 N           9.6396   42.7134    9.9555 N.ar    1  UNL1       -0.1187
      4 N          10.8619   42.5552    9.4517 N.ar    1  UNL1       -0.1239
      5 S          10.5928   40.7047   11.1418 S.2     1  UNL1       -0.0102
      6 C          13.1745   39.9009    8.9267 C.2     1  UNL1        0.2721
      7 N          12.8452   41.1095    9.6192 N.am    1  UNL1       -0.2597
      8 O          12.2773   39.0951    8.5636 O.2     1  UNL1       -0.2707
      9 H          13.5850   41.7135    9.8579 H       1  UNL1        0.1569
     10 C          14.6013   39.5911    8.6255 C.3     1  UNL1        0.2897
     11 O          15.4569   40.5684    9.2105 O.3     1  UNL1       -0.4656
     12 C          15.9880   41.6509    8.5002 C.ar    1  UNL1        0.1393
     13 C          17.2723   42.1050    8.8197 C.ar    1  UNL1        0.0369
     14 C          17.8319   43.1842    8.1293 C.ar    1  UNL1        0.0031
     15 C          17.1080   43.8168    7.1148 C.ar    1  UNL1        0.0002
     16 C          15.8236   43.3711    6.7909 C.ar    1  UNL1        0.0031
     17 C          15.2641   42.2918    7.4810 C.ar    1  UNL1        0.0369
     18 S           7.7851   41.7216   11.7147 S.O2    1  UNL1        0.1010
     19 O           7.7701   40.5229   12.6215 O.2     1  UNL1       -0.1477
     20 O           7.5883   42.9606   12.5424 O.2     1  UNL1       -0.1477
     21 C           5.2437   41.0122   10.9699 C.3     1  UNL1        0.1392
     22 N           6.5047   41.6044   10.5443 N.pl3   1  UNL1       -0.1870
     23 C           6.6786   42.0579    9.1866 C.ar    1  UNL1        0.0689
     24 C           7.0140   41.1546    8.1641 C.ar    1  UNL1        0.0161
     25 C           7.1793   41.5957    6.8483 C.ar    1  UNL1        0.0013
     26 C           7.0113   42.9472    6.5387 C.ar    1  UNL1        0.0001
     27 C           6.6783   43.8571    7.5446 C.ar    1  UNL1        0.0013
     28 C           6.5134   43.4151    8.8602 C.ar    1  UNL1        0.0161
@<TRIPOS>BOND
     1    21    22    1
     2    24    25   ar
     3    26    27   ar
     4    28    23   ar
     5     1     5   ar
     6     2     7    1
     7     2     5   ar
     8    10     6    1
     9    10    11    1
    10    12    11    1
    11    13    14   ar
    12    15    16   ar
    13    17    12   ar
    14    22    23    1
    15     3     4   ar
    16     7     6   am
    17    18    22    1
    18    18     1    1
    19    23    24   ar
    20    25    26   ar
    21    27    28   ar
    22     1     3   ar
    23     2     4   ar
    24     6     8    2
    25    12    13   ar
    26    14    15   ar
    27    16    17   ar
    28    18    19    2
    29    18    20    2
    30     7     9    1
@<TRIPOS>MOLECULE
MolPort-007-723-449 6818300 CHEMBL1322076 ChemDiv-E157-5479 MCULE-2754668881 PubChem-16017379 ZINC000006818300 ZINC06818300
 28 30 0 0 0
SMALL
GASTEIGER

@<TRIPOS>ATOM
      1 C           9.8869   41.5261    7.3602 C.ar    1  UNL1        0.2593
      2 C           7.7004   42.4550    7.5947 C.ar    1  UNL1        0.1894
      3 N           9.7025   42.1499    8.5439 N.ar    1  UNL1       -0.1187
      4 N           8.4833   42.6686    8.6758 N.ar    1  UNL1       -0.1239
      5 S           8.5053   41.5877    6.3988 S.2     1  UNL1       -0.0102
      6 C           5.8236   44.0977    8.0617 C.2     1  UNL1        0.2721
      7 N           6.3448   42.8975    7.4816 N.am    1  UNL1       -0.2597
      8 O           6.5665   44.8818    8.7093 O.2     1  UNL1       -0.2707
      9 H           5.7236   42.3341    6.9660 H       1  UNL1        0.1569
     10 C           4.3799   44.4291    7.8940 C.3     1  UNL1        0.2897
     11 O           3.6478   44.0686    9.0616 O.3     1  UNL1       -0.4656
     12 C           3.7500   42.8166    9.6784 C.ar    1  UNL1        0.1393
     13 C           4.6159   42.6676   10.7673 C.ar    1  UNL1        0.0369
     14 C           4.7414   41.4301   11.4058 C.ar    1  UNL1        0.0031
     15 C           4.0010   40.3330   10.9567 C.ar    1  UNL1        0.0002
     16 C           3.1356   40.4726    9.8682 C.ar    1  UNL1        0.0031
     17 C           3.0099   41.7099    9.2300 C.ar    1  UNL1        0.0369
     18 S          11.3753   40.7218    6.9070 S.O2    1  UNL1        0.1010
     19 O          11.2301   39.2481    7.1655 O.2     1  UNL1       -0.1477
     20 O          11.6488   40.9348    5.4445 O.2     1  UNL1       -0.1477
     21 C          12.7789   41.0030    9.2453 C.3     1  UNL1        0.1392
     22 N          12.6951   41.3666    7.8372 N.pl3   1  UNL1       -0.1870
     23 C          13.6722   42.2498    7.2502 C.ar    1  UNL1        0.0689
     24 C          15.0315   42.1458    7.5898 C.ar    1  UNL1        0.0161
     25 C          15.9774   43.0009    7.0177 C.ar    1  UNL1        0.0013
     26 C          15.5749   43.9718    6.0980 C.ar    1  UNL1        0.0001
     27 C          14.2270   44.0876    5.7508 C.ar    1  UNL1        0.0013
     28 C          13.2817   43.2322    6.3237 C.ar    1  UNL1        0.0161
@<TRIPOS>BOND
     1    21    22    1
     2    24    25   ar
     3    26    27   ar
     4    28    23   ar
     5     1     5   ar
     6     2     7    1
     7     2     5   ar
     8    10     6    1
     9    10    11    1
    10    12    11    1
    11    13    14   ar
    12    15    16   ar
    13    17    12   ar
    14    22    23    1
    15     3     4   ar
    16     7     6   am
    17    18    22    1
    18    18     1    1
    19    23    24   ar
    20    25    26   ar
    21    27    28   ar
    22     1     3   ar
    23     2     4   ar
    24     6     8    2
    25    12    13   ar
    26    14    15   ar
    27    16    17   ar
    28    18    19    2
    29    18    20    2
    30     7     9    1
@<TRIPOS>MOLECULE
MolPort-007-723-449 6818300 CHEMBL1322076 ChemDiv-E157-5479 MCULE-2754668881 PubChem-16017379 ZINC000006818300 ZINC06818300
 28 30 0 0 0
SMALL
GASTEIGER

@<TRIPOS>ATOM
      1 C          10.0361   41.7480   10.4010 C.ar    1  UNL1        0.2593
      2 C          12.2219   41.0952    9.6976 C.ar    1  UNL1        0.1894
      3 N          10.6635   42.6994    9.6761 N.ar    1  UNL1       -0.1187
      4 N          11.8829   42.3364    9.2833 N.ar    1  UNL1       -0.1239
      5 S          10.9909   40.3732   10.5886 S.2     1  UNL1       -0.0102
      6 C          14.2469   39.7082   10.3411 C.2     1  UNL1        0.2721
      7 N          13.4697   40.4605    9.4038 N.am    1  UNL1       -0.2597
      8 O          13.8466   39.5299   11.5218 O.2     1  UNL1       -0.2707
      9 H          13.8202   40.5477    8.4879 H       1  UNL1        0.1569
     10 C          15.5491   39.1216    9.9139 C.3     1  UNL1        0.2897
     11 O          15.3553   38.2141    8.8331 O.3     1  UNL1       -0.4656
     12 C          14.8737   36.9106    8.9991 C.ar    1  UNL1        0.1393
     13 C          15.6024   35.8461    8.4572 C.ar    1  UNL1        0.0369
     14 C          15.1487   34.5319    8.6052 C.ar    1  UNL1        0.0031
     15 C          13.9611   34.2755    9.2962 C.ar    1  UNL1        0.0002
     16 C          13.2260   35.3331    9.8385 C.ar    1  UNL1        0.0031
     17 C          13.6797   36.6471    9.6908 C.ar    1  UNL1        0.0369
     18 S           8.4114   41.9206   11.0322 S.O2    1  UNL1        0.1010
     19 O           8.2508   41.0105   12.2176 O.2     1  UNL1       -0.1477
     20 O           8.1802   43.3389   11.4726 O.2     1  UNL1       -0.1477
     21 C           7.7627   40.9462    8.5530 C.3     1  UNL1        0.1392
     22 N           7.2578   41.5079    9.7985 N.pl3   1  UNL1       -0.1870
     23 C           5.8445   41.7271    9.9824 C.ar    1  UNL1        0.0689
     24 C           5.1264   42.5604    9.1084 C.ar    1  UNL1        0.0161
     25 C           3.7561   42.7694    9.2866 C.ar    1  UNL1        0.0013
     26 C           3.0864   42.1470   10.3424 C.ar    1  UNL1        0.0001
     27 C           3.7869   41.3162   11.2197 C.ar    1  UNL1        0.0013
     28 C           5.1574   41.1080   11.0410 C.ar    1  UNL1        0.0161
@<TRIPOS>BOND
     1    21    22    1
     2    24    25   ar
     3    26    27   ar
     4    28    23   ar
     5     1     5   ar
     6     2     7    1
     7     2     5   ar
     8    10     6    1
     9    10    11    1
    10    12    11    1
    11    13    14   ar
    12    15    16   ar
    13    17    12   ar
    14    22    23    1
    15     3     4   ar
    16     7     6   am
    17    18    22    1
    18    18     1    1
    19    23    24   ar
    20    25    26   ar
    21    27    28   ar
    22     1     3   ar
    23     2     4   ar
    24     6     8    2
    25    12    13   ar
    26    14    15   ar
    27    16    17   ar
    28    18    19    2
    29    18    20    2
    30     7     9    1
@<TRIPOS>MOLECULE
MolPort-007-723-449 6818300 CHEMBL1322076 ChemDiv-E157-5479 MCULE-2754668881 PubChem-16017379 ZINC000006818300 ZINC06818300
 28 30 0 0 0
SMALL
GASTEIGER

@<TRIPOS>ATOM
      1 C          11.0761   41.0399    9.0285 C.ar    1  UNL1        0.2593
      2 C           9.3014   42.6341    9.1151 C.ar    1  UNL1        0.1894
      3 N          11.4213   42.1803    9.6648 N.ar    1  UNL1       -0.1187
      4 N          10.4322   43.0702    9.7137 N.ar    1  UNL1       -0.1239
      5 S           9.4820   41.0841    8.4866 S.2     1  UNL1       -0.0102
      6 C           7.1924   43.3847    7.9203 C.2     1  UNL1        0.2721
      7 N           8.0889   43.3891    9.0361 N.am    1  UNL1       -0.2597
      8 O           7.4139   42.6636    6.9119 O.2     1  UNL1       -0.2707
      9 H           7.8535   43.9542    9.8071 H       1  UNL1        0.1569
     10 C           5.9742   44.2433    7.9522 C.3     1  UNL1        0.2897
     11 O           5.2989   44.1029    9.1986 O.3     1  UNL1       -0.4656
     12 C           4.7138   42.9059    9.6267 C.ar    1  UNL1        0.1393
     13 C           3.3834   42.6423    9.2827 C.ar    1  UNL1        0.0369
     14 C           2.7692   41.4558    9.6947 C.ar    1  UNL1        0.0031
     15 C           3.4834   40.5258   10.4553 C.ar    1  UNL1        0.0002
     16 C           4.8119   40.7823   10.8052 C.ar    1  UNL1        0.0031
     17 C           5.4262   41.9685   10.3931 C.ar    1  UNL1        0.0369
     18 S          12.1535   39.6733    8.8302 S.O2    1  UNL1        0.1010
     19 O          11.4784   38.4404    9.3629 O.2     1  UNL1       -0.1477
     20 O          12.4603   39.4691    7.3731 O.2     1  UNL1       -0.1477
     21 C          13.7634   39.4135   11.0342 C.3     1  UNL1        0.1392
     22 N          13.6345   39.9662    9.6926 N.pl3   1  UNL1       -0.1870
     23 C          14.7021   40.7462    9.1170 C.ar    1  UNL1        0.0689
     24 C          16.0338   40.5496    9.5191 C.ar    1  UNL1        0.0161
     25 C          17.0674   41.3045    8.9579 C.ar    1  UNL1        0.0013
     26 C          16.7814   42.2667    7.9869 C.ar    1  UNL1        0.0001
     27 C          15.4623   42.4738    7.5773 C.ar    1  UNL1        0.0013
     28 C          14.4292   41.7185    8.1392 C.ar    1  UNL1        0.0161
@<TRIPOS>BOND
     1    21    22    1
     2    24    25   ar
     3    26    27   ar
     4    28    23   ar
     5     1     5   ar
     6     2     7    1
     7     2     5   ar
     8    10     6    1
     9    10    11    1
    10    12    11    1
    11    13    14   ar
    12    15    16   ar
    13    17    12   ar
    14    22    23    1
    15     3     4   ar
    16     7     6   am
    17    18    22    1
    18    18     1    1
    19    23    24   ar
    20    25    26   ar
    21    27    28   ar
    22     1     3   ar
    23     2     4   ar
    24     6     8    2
    25    12    13   ar
    26    14    15   ar
    27    16    17   ar
    28    18    19    2
    29    18    20    2
    30     7     9    1
@<TRIPOS>MOLECULE
MolPort-007-723-449 6818300 CHEMBL1322076 ChemDiv-E157-5479 MCULE-2754668881 PubChem-16017379 ZINC000006818300 ZINC06818300
 28 30 0 0 0
SMALL
GASTEIGER

@<TRIPOS>ATOM
      1 C          10.5978   42.0350    9.6936 C.ar    1  UNL1        0.2593
      2 C          12.6894   40.9242    9.3934 C.ar    1  UNL1        0.1894
      3 N          11.4159   42.6742    8.8294 N.ar    1  UNL1       -0.1187
      4 N          12.5828   42.0555    8.6613 N.ar    1  UNL1       -0.1239
      5 S          11.3037   40.6318   10.3015 S.2     1  UNL1       -0.0102
      6 C          14.3590   39.3947   10.5386 C.2     1  UNL1        0.2721
      7 N          13.8341   40.0664    9.3889 N.am    1  UNL1       -0.2597
      8 O          13.8032   39.5019   11.6636 O.2     1  UNL1       -0.2707
      9 H          14.2956   39.9276    8.5304 H       1  UNL1        0.1569
     10 C          15.5803   38.5506   10.4036 C.3     1  UNL1        0.2897
     11 O          15.6388   37.9638    9.1069 O.3     1  UNL1       -0.4656
     12 C          15.5421   36.5863    8.8800 C.ar    1  UNL1        0.1393
     13 C          14.4204   35.8992    9.3571 C.ar    1  UNL1        0.0369
     14 C          14.2933   34.5228    9.1474 C.ar    1  UNL1        0.0031
     15 C          15.2900   33.8250    8.4594 C.ar    1  UNL1        0.0002
     16 C          16.4147   34.5031    7.9817 C.ar    1  UNL1        0.0031
     17 C          16.5417   35.8794    8.1910 C.ar    1  UNL1        0.0369
     18 S           8.9858   42.5889   10.0962 S.O2    1  UNL1        0.1010
     19 O           8.3197   41.5578   10.9638 O.2     1  UNL1       -0.1477
     20 O           9.0628   43.8853   10.8529 O.2     1  UNL1       -0.1477
     21 C           7.5374   44.1602    8.3787 C.3     1  UNL1        0.1392
     22 N           8.0689   42.8292    8.6386 N.pl3   1  UNL1       -0.1870
     23 C           7.8189   41.7487    7.7169 C.ar    1  UNL1        0.0689
     24 C           6.5640   41.1187    7.6706 C.ar    1  UNL1        0.0161
     25 C           6.3229   40.0736    6.7747 C.ar    1  UNL1        0.0013
     26 C           7.3352   39.6451    5.9131 C.ar    1  UNL1        0.0001
     27 C           8.5880   40.2614    5.9477 C.ar    1  UNL1        0.0013
     28 C           8.8284   41.3064    6.8443 C.ar    1  UNL1        0.0161
@<TRIPOS>BOND
     1    21    22    1
     2    24    25   ar
     3    26    27   ar
     4    28    23   ar
     5     1     5   ar
     6     2     7    1
     7     2     5   ar
     8    10     6    1
     9    10    11    1
    10    12    11    1
    11    13    14   ar
    12    15    16   ar
    13    17    12   ar
    14    22    23    1
    15     3     4   ar
    16     7     6   am
    17    18    22    1
    18    18     1    1
    19    23    24   ar
    20    25    26   ar
    21    27    28   ar
    22     1     3   ar
    23     2     4   ar
    24     6     8    2
    25    12    13   ar
    26    14    15   ar
    27    16    17   ar
    28    18    19    2
    29    18    20    2
    30     7     9    1
@<TRIPOS>MOLECULE
MolPort-007-723-449 6818300 CHEMBL1322076 ChemDiv-E157-5479 MCULE-2754668881 PubChem-16017379 ZINC000006818300 ZINC06818300
 28 30 0 0 0
SMALL
GASTEIGER

@<TRIPOS>ATOM
      1 C          13.1063   38.9299   10.8559 C.ar    1  UNL1        0.2593
      2 C          11.0067   39.5386    9.8969 C.ar    1  UNL1        0.1894
      3 N          12.5955   40.0650   11.3804 N.ar    1  UNL1       -0.1187
      4 N          11.4245   40.4055   10.8461 N.ar    1  UNL1       -0.1239
      5 S          12.0974   38.2770    9.6758 S.2     1  UNL1       -0.0102
      6 C           9.2044   40.9038    8.7451 C.2     1  UNL1        0.2721
      7 N           9.7784   39.6650    9.1747 N.am    1  UNL1       -0.2597
      8 O           9.7863   41.9994    8.9626 O.2     1  UNL1       -0.2707
      9 H           9.2912   38.8378    8.9567 H       1  UNL1        0.1569
     10 C           7.8993   40.8992    8.0247 C.3     1  UNL1        0.2897
     11 O           7.5517   42.2190    7.6164 O.3     1  UNL1       -0.4656
     12 C           6.3426   42.8365    7.9558 C.ar    1  UNL1        0.1393
     13 C           5.9786   44.0176    7.2997 C.ar    1  UNL1        0.0369
     14 C           4.7774   44.6595    7.6155 C.ar    1  UNL1        0.0031
     15 C           3.9332   44.1232    8.5918 C.ar    1  UNL1        0.0002
     16 C           4.2903   42.9452    9.2536 C.ar    1  UNL1        0.0031
     17 C           5.4912   42.3031    8.9378 C.ar    1  UNL1        0.0369
     18 S          14.6180   38.2137   11.3751 S.O2    1  UNL1        0.1010
     19 O          15.0300   38.8388   12.6785 O.2     1  UNL1       -0.1477
     20 O          14.4419   36.7350   11.5787 O.2     1  UNL1       -0.1477
     21 C          16.7281   37.3799    9.8360 C.3     1  UNL1        0.1392
     22 N          15.8389   38.4851   10.1674 N.pl3   1  UNL1       -0.1870
     23 C          15.9897   39.7648    9.5200 C.ar    1  UNL1        0.0689
     24 C          14.9399   40.3184    8.7681 C.ar    1  UNL1        0.0161
     25 C          15.0869   41.5601    8.1439 C.ar    1  UNL1        0.0013
     26 C          16.2872   42.2640    8.2638 C.ar    1  UNL1        0.0001
     27 C          17.3399   41.7263    9.0076 C.ar    1  UNL1        0.0013
     28 C          17.1921   40.4843    9.6314 C.ar    1  UNL1        0.0161
@<TRIPOS>BOND
     1    21    22    1
     2    24    25   ar
     3    26    27   ar
     4    28    23   ar
     5     1     5   ar
     6     2     7    1
     7     2     5   ar
     8    10     6    1
     9    10    11    1
    10    12    11    1
    11    13    14   ar
    12    15    16   ar
    13    17    12   ar
    14    22    23    1
    15     3     4   ar
    16     7     6   am
    17    18    22    1
    18    18     1    1
    19    23    24   ar
    20    25    26   ar
    21    27    28   ar
    22     1     3   ar
    23     2     4   ar
    24     6     8    2
    25    12    13   ar
    26    14    15   ar
    27    16    17   ar
    28    18    19    2
    29    18    20    2
    30     7     9    1
@<TRIPOS>MOLECULE
MolPort-007-723-449 6818300 CHEMBL1322076 ChemDiv-E157-5479 MCULE-2754668881 PubChem-16017379 ZINC000006818300 ZINC06818300
 28 30 0 0 0
SMALL
GASTEIGER

@<TRIPOS>ATOM
      1 C          12.7990   39.9671    9.5893 C.ar    1  UNL1        0.2593
      2 C          10.5545   40.1346   10.3847 C.ar    1  UNL1        0.1894
      3 N          12.1610   38.7770    9.6242 N.ar    1  UNL1       -0.1187
      4 N          10.9090   38.8693   10.0678 N.ar    1  UNL1       -0.1239
      5 S          11.8091   41.2231   10.1178 S.2     1  UNL1       -0.0102
      6 C           8.7568   41.8494   10.9011 C.2     1  UNL1        0.2721
      7 N           9.2641   40.5113   10.8739 N.am    1  UNL1       -0.2597
      8 O           9.4349   42.8104   10.4507 O.2     1  UNL1       -0.2707
      9 H           8.6811   39.7964   11.2178 H       1  UNL1        0.1569
     10 C           7.4028   42.1115   11.4670 C.3     1  UNL1        0.2897
     11 O           6.3977   41.8601   10.4893 O.3     1  UNL1       -0.4656
     12 C           6.5097   42.2543    9.1512 C.ar    1  UNL1        0.1393
     13 C           6.8416   41.2944    8.1887 C.ar    1  UNL1        0.0369
     14 C           6.9614   41.6553    6.8433 C.ar    1  UNL1        0.0031
     15 C           6.7509   42.9808    6.4532 C.ar    1  UNL1        0.0002
     16 C           6.4214   43.9463    7.4084 C.ar    1  UNL1        0.0031
     17 C           6.3012   43.5855    8.7536 C.ar    1  UNL1        0.0369
     18 S          14.4445   40.1714    9.0253 S.O2    1  UNL1        0.1010
     19 O          15.3183   40.5314   10.1942 O.2     1  UNL1       -0.1477
     20 O          14.9431   38.8882    8.4219 O.2     1  UNL1       -0.1477
     21 C          13.3671   41.5560    6.9184 C.3     1  UNL1        0.1392
     22 N          14.4996   41.4287    7.8257 N.pl3   1  UNL1       -0.1870
     23 C          15.6332   42.3125    7.7094 C.ar    1  UNL1        0.0689
     24 C          15.5699   43.4609    6.9026 C.ar    1  UNL1        0.0161
     25 C          16.6686   44.3176    6.7934 C.ar    1  UNL1        0.0013
     26 C          17.8456   44.0359    7.4904 C.ar    1  UNL1        0.0001
     27 C          17.9237   42.8977    8.2961 C.ar    1  UNL1        0.0013
     28 C          16.8245   42.0413    8.4044 C.ar    1  UNL1        0.0161
@<TRIPOS>BOND
     1    21    22    1
     2    24    25   ar
     3    26    27   ar
     4    28    23   ar
     5     1     5   ar
     6     2     7    1
     7     2     5   ar
     8    10     6    1
     9    10    11    1
    10    12    11    1
    11    13    14   ar
    12    15    16   ar
    13    17    12   ar
    14    22    23    1
    15     3     4   ar
    16     7     6   am
    17    18    22    1
    18    18     1    1
    19    23    24   ar
    20    25    26   ar
    21    27    28   ar
    22     1     3   ar
    23     2     4   ar
    24     6     8    2
    25    12    13   ar
    26    14    15   ar
    27    16    17   ar
    28    18    19    2
    29    18    20    2
    30     7     9    1
