@<TRIPOS>MOLECULE
Molport-052-054-344 MCULE-5428378396 PubChem-110095880
 27 29 0 0 0
SMALL
GASTEIGER

@<TRIPOS>ATOM
      1 C          16.0457   43.6204    6.6236 C.3     1  UNL1        0.0522
      2 C          14.8771   42.7424    6.8911 C.ar    1  UNL1        0.0635
      3 C          13.7074   42.8944    6.1499 C.ar    1  UNL1        0.0492
      4 C          12.6239   42.0527    6.4238 C.ar    1  UNL1        0.1361
      5 C          13.8886   40.9787    8.1162 C.ar    1  UNL1        0.1414
      6 N          12.7411   41.1145    7.4005 N.ar    1  UNL1       -0.2159
      7 N          14.9491   41.7915    7.8574 N.ar    1  UNL1       -0.2348
      8 C          13.9736   39.9338    9.1784 C.3     1  UNL1        0.0785
      9 C          12.9211   40.1773   10.2618 C.3     1  UNL1        0.0110
     10 C          13.0130   39.1039   11.3444 C.3     1  UNL1        0.0220
     11 C          14.4114   39.0974   11.9545 C.3     1  UNL1        0.0935
     12 C          15.3751   39.9010    9.7877 C.3     1  UNL1        0.1009
     13 C          16.3565   37.8749   10.9284 C.2     1  UNL1        0.2418
     14 N          15.4037   38.9474   10.8937 N.am    1  UNL1       -0.2780
     15 O          16.3624   37.0640   11.8929 O.2     1  UNL1       -0.2734
     16 C          17.3755   37.7161    9.8468 C.3     1  UNL1        0.1552
     17 C          19.4489   38.6358   10.4028 C.3     1  UNL1        0.0862
     18 N          18.1839   38.9193    9.7482 N.3     1  UNL1       -0.2886
     19 H          17.7146   39.6958   10.2143 H       1  UNL1        0.1237
     20 N          11.3899   42.1511    5.7006 N.pl3   1  UNL1       -0.2781
     21 H          11.1173   43.0517    5.4111 H       1  UNL1        0.1555
     22 C          10.5136   41.0713    5.3566 C.ar    1  UNL1        0.1642
     23 C           9.6612   39.3600    4.1960 C.ar    1  UNL1        0.0678
     24 C           8.7373   39.3614    5.2408 C.ar    1  UNL1        0.0528
     25 C           9.5850   38.3885    3.0741 C.3     1  UNL1        0.0527
     26 N          10.6408   40.3014    4.2571 N.ar    1  UNL1       -0.2283
     27 S           9.1930   40.6114    6.2765 S.2     1  UNL1       -0.0512
@<TRIPOS>BOND
     1     1     2    1
     2     2     7   ar
     3     3     4   ar
     4     4    20    1
     5     5     6   ar
     6     8     5    1
     7     8     9    1
     8     9    10    1
     9    10    11    1
    10    11    14    1
    11    12    14    1
    12    12     8    1
    13    16    13    1
    14    16    18    1
    15    17    18    1
    16    22    27   ar
    17    23    26   ar
    18    24    27   ar
    19    25    23    1
    20    14    13   am
    21    20    22    1
    22     2     3   ar
    23     4     6   ar
    24     5     7   ar
    25    13    15    2
    26    22    26   ar
    27    23    24   ar
    28    18    19    1
    29    20    21    1
@<TRIPOS>MOLECULE
Molport-052-054-344 MCULE-5428378396 PubChem-110095880
 27 29 0 0 0
SMALL
GASTEIGER

@<TRIPOS>ATOM
      1 C          16.3857   44.1810    6.0280 C.3     1  UNL1        0.0522
      2 C          15.3935   43.2293    6.5916 C.ar    1  UNL1        0.0635
      3 C          14.1013   43.1816    6.0732 C.ar    1  UNL1        0.0492
      4 C          13.1891   42.2749    6.6238 C.ar    1  UNL1        0.1361
      5 C          14.8502   41.5276    8.1402 C.ar    1  UNL1        0.1414
      6 N          13.5861   41.4691    7.6441 N.ar    1  UNL1       -0.2159
      7 N          15.7459   42.4054    7.6116 N.ar    1  UNL1       -0.2348
      8 C          15.2433   40.6230    9.2603 C.3     1  UNL1        0.0785
      9 C          16.7650   40.5831    9.4145 C.3     1  UNL1        0.0110
     10 C          17.1597   39.6570   10.5630 C.3     1  UNL1        0.0220
     11 C          16.6146   38.2543   10.3122 C.3     1  UNL1        0.0935
     12 C          14.6886   39.2168    9.0340 C.3     1  UNL1        0.1009
     13 C          14.2659   37.5646   10.8944 C.2     1  UNL1        0.2418
     14 N          15.1738   38.3263   10.0852 N.am    1  UNL1       -0.2780
     15 O          14.7074   36.8027   11.7957 O.2     1  UNL1       -0.2734
     16 C          12.7904   37.6326   10.6668 C.3     1  UNL1        0.1552
     17 C          13.0237   35.4536    9.8597 C.3     1  UNL1        0.0862
     18 N          12.4157   36.7427    9.5811 N.3     1  UNL1       -0.2886
     19 H          12.7608   37.1083    8.6936 H       1  UNL1        0.1237
     20 N          11.8436   42.1700    6.1400 N.pl3   1  UNL1       -0.2781
     21 H          11.3612   43.0145    5.9871 H       1  UNL1        0.1555
     22 C          11.1301   40.9606    5.8566 C.ar    1  UNL1        0.1642
     23 C          10.3478   39.2198    4.6905 C.ar    1  UNL1        0.0678
     24 C           9.7434   38.9193    5.9110 C.ar    1  UNL1        0.0528
     25 C          10.1698   38.3649    3.4880 C.3     1  UNL1        0.0527
     26 N          11.1121   40.3442    4.6576 N.ar    1  UNL1       -0.2283
     27 S          10.2055   40.1363    6.9825 S.2     1  UNL1       -0.0512
@<TRIPOS>BOND
     1     1     2    1
     2     2     7   ar
     3     3     4   ar
     4     4    20    1
     5     5     6   ar
     6     8     5    1
     7     8     9    1
     8     9    10    1
     9    10    11    1
    10    11    14    1
    11    12    14    1
    12    12     8    1
    13    16    13    1
    14    16    18    1
    15    17    18    1
    16    22    27   ar
    17    23    26   ar
    18    24    27   ar
    19    25    23    1
    20    14    13   am
    21    20    22    1
    22     2     3   ar
    23     4     6   ar
    24     5     7   ar
    25    13    15    2
    26    22    26   ar
    27    23    24   ar
    28    18    19    1
    29    20    21    1
@<TRIPOS>MOLECULE
Molport-052-054-344 MCULE-5428378396 PubChem-110095880
 27 29 0 0 0
SMALL
GASTEIGER

@<TRIPOS>ATOM
      1 C          13.7932   39.2482   11.5517 C.3     1  UNL1        0.0522
      2 C          13.1663   40.0905   10.5002 C.ar    1  UNL1        0.0635
      3 C          13.8776   40.4068    9.3449 C.ar    1  UNL1        0.0492
      4 C          13.2610   41.2011    8.3721 C.ar    1  UNL1        0.1361
      5 C          11.3100   41.3243    9.7122 C.ar    1  UNL1        0.1414
      6 N          11.9913   41.6403    8.5793 N.ar    1  UNL1       -0.2159
      7 N          11.8999   40.5516   10.6647 N.ar    1  UNL1       -0.2348
      8 C           9.9171   41.8272    9.8973 C.3     1  UNL1        0.0785
      9 C           9.4755   41.6726   11.3540 C.3     1  UNL1        0.0110
     10 C           8.0502   42.1904   11.5361 C.3     1  UNL1        0.0220
     11 C           7.0999   41.4372   10.6104 C.3     1  UNL1        0.0935
     12 C           8.9540   41.0955    8.9627 C.3     1  UNL1        0.1009
     13 C           6.7492   42.0556    8.1968 C.2     1  UNL1        0.2418
     14 N           7.5860   41.5281    9.2364 N.am    1  UNL1       -0.2780
     15 O           5.5721   42.4225    8.4563 O.2     1  UNL1       -0.2734
     16 C           7.2398   42.1503    6.7883 C.3     1  UNL1        0.1552
     17 C           6.5512   39.9686    6.3198 C.3     1  UNL1        0.0862
     18 N           6.3942   41.3544    5.9152 N.3     1  UNL1       -0.2886
     19 H           6.6849   41.4710    4.9445 H       1  UNL1        0.1237
     20 N          13.9317   41.5650    7.1584 N.pl3   1  UNL1       -0.2781
     21 H          13.7145   41.0360    6.3570 H       1  UNL1        0.1555
     22 C          14.8861   42.6207    6.9940 C.ar    1  UNL1        0.1642
     23 C          16.7787   43.7853    7.2468 C.ar    1  UNL1        0.0678
     24 C          16.1300   44.6612    6.3766 C.ar    1  UNL1        0.0528
     25 C          18.1398   44.0598    7.7763 C.3     1  UNL1        0.0527
     26 N          16.0953   42.6603    7.5890 N.ar    1  UNL1       -0.2283
     27 S          14.6311   43.9689    6.0353 S.2     1  UNL1       -0.0512
@<TRIPOS>BOND
     1     1     2    1
     2     2     7   ar
     3     3     4   ar
     4     4    20    1
     5     5     6   ar
     6     8     5    1
     7     8     9    1
     8     9    10    1
     9    10    11    1
    10    11    14    1
    11    12    14    1
    12    12     8    1
    13    16    13    1
    14    16    18    1
    15    17    18    1
    16    22    27   ar
    17    23    26   ar
    18    24    27   ar
    19    25    23    1
    20    14    13   am
    21    20    22    1
    22     2     3   ar
    23     4     6   ar
    24     5     7   ar
    25    13    15    2
    26    22    26   ar
    27    23    24   ar
    28    18    19    1
    29    20    21    1
@<TRIPOS>MOLECULE
Molport-052-054-344 MCULE-5428378396 PubChem-110095880
 27 29 0 0 0
SMALL
GASTEIGER

@<TRIPOS>ATOM
      1 C          15.8917   44.8491    6.0635 C.3     1  UNL1        0.0522
      2 C          15.6697   43.5985    6.8348 C.ar    1  UNL1        0.0635
      3 C          16.6651   43.1163    7.6817 C.ar    1  UNL1        0.0492
      4 C          16.4271   41.9368    8.3956 C.ar    1  UNL1        0.1361
      5 C          14.2759   41.7787    7.4134 C.ar    1  UNL1        0.1414
      6 N          15.2375   41.2966    8.2443 N.ar    1  UNL1       -0.2159
      7 N          14.4965   42.9257    6.7148 N.ar    1  UNL1       -0.2348
      8 C          12.9839   41.0439    7.2791 C.3     1  UNL1        0.0785
      9 C          11.8709   41.9870    6.8179 C.3     1  UNL1        0.0110
     10 C          10.5525   41.2282    6.6813 C.3     1  UNL1        0.0220
     11 C          10.1829   40.5819    8.0130 C.3     1  UNL1        0.0935
     12 C          12.6080   40.3739    8.6006 C.3     1  UNL1        0.1009
     13 C          11.0946   38.3611    8.7666 C.2     1  UNL1        0.2418
     14 N          11.2923   39.7522    8.4750 N.am    1  UNL1       -0.2780
     15 O           9.9503   37.8463    8.6512 O.2     1  UNL1       -0.2734
     16 C          12.2251   37.5065    9.2409 C.3     1  UNL1        0.1552
     17 C          12.6478   35.4725   10.3077 C.3     1  UNL1        0.0862
     18 N          11.7691   36.6287   10.3051 N.3     1  UNL1       -0.2886
     19 H          10.8072   36.3373   10.1308 H       1  UNL1        0.1237
     20 N          17.4049   41.3830    9.2859 N.pl3   1  UNL1       -0.2781
     21 H          18.2013   41.9330    9.4659 H       1  UNL1        0.1555
     22 C          17.3401   40.1102    9.9401 C.ar    1  UNL1        0.1642
     23 C          16.4767   38.3777   11.0605 C.ar    1  UNL1        0.0678
     24 C          17.7768   37.8906   10.9276 C.ar    1  UNL1        0.0528
     25 C          15.4117   37.6100   11.7568 C.3     1  UNL1        0.0527
     26 N          16.2334   39.6007   10.5177 N.ar    1  UNL1       -0.2283
     27 S          18.6417   39.0679   10.0857 S.2     1  UNL1       -0.0512
@<TRIPOS>BOND
     1     1     2    1
     2     2     7   ar
     3     3     4   ar
     4     4    20    1
     5     5     6   ar
     6     8     5    1
     7     8     9    1
     8     9    10    1
     9    10    11    1
    10    11    14    1
    11    12    14    1
    12    12     8    1
    13    16    13    1
    14    16    18    1
    15    17    18    1
    16    22    27   ar
    17    23    26   ar
    18    24    27   ar
    19    25    23    1
    20    14    13   am
    21    20    22    1
    22     2     3   ar
    23     4     6   ar
    24     5     7   ar
    25    13    15    2
    26    22    26   ar
    27    23    24   ar
    28    18    19    1
    29    20    21    1
@<TRIPOS>MOLECULE
Molport-052-054-344 MCULE-5428378396 PubChem-110095880
 27 29 0 0 0
SMALL
GASTEIGER

@<TRIPOS>ATOM
      1 C          16.2545   44.7837    6.2074 C.3     1  UNL1        0.0522
      2 C          15.8754   43.5713    6.9784 C.ar    1  UNL1        0.0635
      3 C          16.8132   42.9439    7.7955 C.ar    1  UNL1        0.0492
      4 C          16.4271   41.8046    8.5099 C.ar    1  UNL1        0.1361
      5 C          14.2504   41.9654    7.5861 C.ar    1  UNL1        0.1414
      6 N          15.1542   41.3431    8.3881 N.ar    1  UNL1       -0.2159
      7 N          14.6150   43.0749    6.8873 N.ar    1  UNL1       -0.2348
      8 C          12.8630   41.4249    7.4836 C.3     1  UNL1        0.0785
      9 C          12.4071   41.3790    6.0239 C.3     1  UNL1        0.0110
     10 C          10.9876   40.8236    5.9267 C.3     1  UNL1        0.0220
     11 C          10.0348   41.6811    6.7538 C.3     1  UNL1        0.0935
     12 C          11.8978   42.2621    8.3226 C.3     1  UNL1        0.1009
     13 C           9.7131   41.3846    9.2316 C.2     1  UNL1        0.2418
     14 N          10.5337   41.7798    8.1227 N.am    1  UNL1       -0.2780
     15 O           8.5390   40.9715    9.0351 O.2     1  UNL1       -0.2734
     16 C          10.2168   41.4840   10.6351 C.3     1  UNL1        0.1552
     17 C           8.6339   41.5466   12.3510 C.3     1  UNL1        0.0862
     18 N           9.4096   40.6516   11.5106 N.3     1  UNL1       -0.2886
     19 H          10.0112   40.0632   12.0872 H       1  UNL1        0.1237
     20 N          17.3382   41.1084    9.3705 N.pl3   1  UNL1       -0.2781
     21 H          18.2291   41.5102    9.4895 H       1  UNL1        0.1555
     22 C          17.0833   39.8873   10.0748 C.ar    1  UNL1        0.1642
     23 C          15.9349   38.2809   11.1250 C.ar    1  UNL1        0.0678
     24 C          17.2055   37.7190   11.2478 C.ar    1  UNL1        0.0528
     25 C          14.7209   37.6179   11.6682 C.3     1  UNL1        0.0527
     26 N          15.8647   39.4759   10.4794 N.ar    1  UNL1       -0.2283
     27 S          18.2731   38.7908   10.5034 S.2     1  UNL1       -0.0512
@<TRIPOS>BOND
     1     1     2    1
     2     2     7   ar
     3     3     4   ar
     4     4    20    1
     5     5     6   ar
     6     8     5    1
     7     8     9    1
     8     9    10    1
     9    10    11    1
    10    11    14    1
    11    12    14    1
    12    12     8    1
    13    16    13    1
    14    16    18    1
    15    17    18    1
    16    22    27   ar
    17    23    26   ar
    18    24    27   ar
    19    25    23    1
    20    14    13   am
    21    20    22    1
    22     2     3   ar
    23     4     6   ar
    24     5     7   ar
    25    13    15    2
    26    22    26   ar
    27    23    24   ar
    28    18    19    1
    29    20    21    1
@<TRIPOS>MOLECULE
Molport-052-054-344 MCULE-5428378396 PubChem-110095880
 27 29 0 0 0
SMALL
GASTEIGER

@<TRIPOS>ATOM
      1 C          16.2532   43.7683    6.9853 C.3     1  UNL1        0.0522
      2 C          15.1382   42.7960    7.1252 C.ar    1  UNL1        0.0635
      3 C          14.0441   42.8622    6.2654 C.ar    1  UNL1        0.0492
      4 C          13.0098   41.9330    6.4207 C.ar    1  UNL1        0.1361
      5 C          14.1735   40.9438    8.2331 C.ar    1  UNL1        0.1414
      6 N          13.0999   40.9956    7.4010 N.ar    1  UNL1       -0.2159
      7 N          15.1856   41.8424    8.0904 N.ar    1  UNL1       -0.2348
      8 C          14.2313   39.8965    9.2948 C.3     1  UNL1        0.0785
      9 C          13.1947   40.1742   10.3853 C.3     1  UNL1        0.0110
     10 C          13.2587   39.0980   11.4672 C.3     1  UNL1        0.0220
     11 C          14.6602   39.0456   12.0678 C.3     1  UNL1        0.0935
     12 C          15.6351   39.8177    9.8945 C.3     1  UNL1        0.1009
     13 C          16.5572   37.7602   11.0286 C.2     1  UNL1        0.2418
     14 N          15.6399   38.8634   11.0003 N.am    1  UNL1       -0.2780
     15 O          16.5431   36.9494   11.9930 O.2     1  UNL1       -0.2734
     16 C          17.5632   37.5684    9.9402 C.3     1  UNL1        0.1552
     17 C          18.5116   35.8773    8.6384 C.3     1  UNL1        0.0862
     18 N          18.0902   36.2152    9.9864 N.3     1  UNL1       -0.2886
     19 H          17.3668   35.5680   10.2999 H       1  UNL1        0.1237
     20 N          11.8545   41.9404    5.5718 N.pl3   1  UNL1       -0.2781
     21 H          11.9352   42.4256    4.7189 H       1  UNL1        0.1555
     22 C          10.5946   41.3133    5.8392 C.ar    1  UNL1        0.1642
     23 C           8.6799   40.8344    6.8912 C.ar    1  UNL1        0.0678
     24 C           8.5391   39.9469    5.8246 C.ar    1  UNL1        0.0528
     25 C           7.6555   40.9540    7.9612 C.3     1  UNL1        0.0527
     26 N           9.8118   41.5883    6.9020 N.ar    1  UNL1       -0.2283
     27 S           9.9119   40.1364    4.8642 S.2     1  UNL1       -0.0512
@<TRIPOS>BOND
     1     1     2    1
     2     2     7   ar
     3     3     4   ar
     4     4    20    1
     5     5     6   ar
     6     8     5    1
     7     8     9    1
     8     9    10    1
     9    10    11    1
    10    11    14    1
    11    12    14    1
    12    12     8    1
    13    16    13    1
    14    16    18    1
    15    17    18    1
    16    22    27   ar
    17    23    26   ar
    18    24    27   ar
    19    25    23    1
    20    14    13   am
    21    20    22    1
    22     2     3   ar
    23     4     6   ar
    24     5     7   ar
    25    13    15    2
    26    22    26   ar
    27    23    24   ar
    28    18    19    1
    29    20    21    1
@<TRIPOS>MOLECULE
Molport-052-054-344 MCULE-5428378396 PubChem-110095880
 27 29 0 0 0
SMALL
GASTEIGER

@<TRIPOS>ATOM
      1 C          15.5466   44.2129    5.8554 C.3     1  UNL1        0.0522
      2 C          15.3961   43.1474    6.8801 C.ar    1  UNL1        0.0635
      3 C          16.5090   42.6997    7.5884 C.ar    1  UNL1        0.0492
      4 C          16.3364   41.6958    8.5474 C.ar    1  UNL1        0.1361
      5 C          14.0175   41.6332    8.0614 C.ar    1  UNL1        0.1414
      6 N          15.0940   41.1871    8.7611 N.ar    1  UNL1       -0.2159
      7 N          14.1739   42.6100    7.1267 N.ar    1  UNL1       -0.2348
      8 C          12.6715   41.0471    8.3299 C.3     1  UNL1        0.0785
      9 C          12.6956   40.1975    9.6020 C.3     1  UNL1        0.0110
     10 C          11.3150   39.6024    9.8711 C.3     1  UNL1        0.0220
     11 C          10.8689   38.7611    8.6792 C.3     1  UNL1        0.0935
     12 C          12.2007   40.2158    7.1367 C.3     1  UNL1        0.1009
     13 C           9.7735   39.7388    6.6358 C.2     1  UNL1        0.2418
     14 N          10.9332   39.5678    7.4636 N.am    1  UNL1       -0.2780
     15 O           8.6905   39.1699    6.9377 O.2     1  UNL1       -0.2734
     16 C           9.8326   40.5620    5.3900 C.3     1  UNL1        0.1552
     17 C           8.8509   41.9445    6.9959 C.3     1  UNL1        0.0862
     18 N           9.4893   41.9412    5.6915 N.3     1  UNL1       -0.2886
     19 H           8.8479   42.3047    4.9867 H       1  UNL1        0.1237
     20 N          17.4357   41.1877    9.3147 N.pl3   1  UNL1       -0.2781
     21 H          18.1947   41.7981    9.4583 H       1  UNL1        0.1555
     22 C          17.5413   39.8816    9.8935 C.ar    1  UNL1        0.1642
     23 C          18.4136   37.8868   10.4056 C.ar    1  UNL1        0.0678
     24 C          17.2074   37.7499   11.0922 C.ar    1  UNL1        0.0528
     25 C          19.4420   36.8141   10.3916 C.3     1  UNL1        0.0527
     26 N          18.6001   39.0603    9.7438 N.ar    1  UNL1       -0.2283
     27 S          16.3529   39.1816   10.8419 S.2     1  UNL1       -0.0512
@<TRIPOS>BOND
     1     1     2    1
     2     2     7   ar
     3     3     4   ar
     4     4    20    1
     5     5     6   ar
     6     8     5    1
     7     8     9    1
     8     9    10    1
     9    10    11    1
    10    11    14    1
    11    12    14    1
    12    12     8    1
    13    16    13    1
    14    16    18    1
    15    17    18    1
    16    22    27   ar
    17    23    26   ar
    18    24    27   ar
    19    25    23    1
    20    14    13   am
    21    20    22    1
    22     2     3   ar
    23     4     6   ar
    24     5     7   ar
    25    13    15    2
    26    22    26   ar
    27    23    24   ar
    28    18    19    1
    29    20    21    1
@<TRIPOS>MOLECULE
Molport-052-054-344 MCULE-5428378396 PubChem-110095880
 27 29 0 0 0
SMALL
GASTEIGER

@<TRIPOS>ATOM
      1 C          13.5241   39.8520   10.7980 C.3     1  UNL1        0.0522
      2 C          12.7988   40.3051    9.5828 C.ar    1  UNL1        0.0635
      3 C          13.4701   41.0297    8.6004 C.ar    1  UNL1        0.0492
      4 C          12.7612   41.4423    7.4670 C.ar    1  UNL1        0.1361
      5 C          10.8018   40.4198    8.3228 C.ar    1  UNL1        0.1414
      6 N          11.4437   41.1267    7.3555 N.ar    1  UNL1       -0.2159
      7 N          11.4820   40.0128    9.4292 N.ar    1  UNL1       -0.2348
      8 C           9.3546   40.0942    8.1581 C.3     1  UNL1        0.0785
      9 C           9.1049   39.4054    6.8150 C.3     1  UNL1        0.0110
     10 C           7.6226   39.0740    6.6541 C.3     1  UNL1        0.0220
     11 C           6.7894   40.3476    6.7607 C.3     1  UNL1        0.0935
     12 C           8.5032   41.3576    8.2813 C.3     1  UNL1        0.1009
     13 C           6.0715   41.3443    8.9567 C.2     1  UNL1        0.2418
     14 N           7.1052   41.0316    8.0117 N.am    1  UNL1       -0.2780
     15 O           4.8721   41.0535    8.7025 O.2     1  UNL1       -0.2734
     16 C           6.3874   42.0452   10.2382 C.3     1  UNL1        0.1552
     17 C           7.7898   41.4838   12.0192 C.3     1  UNL1        0.0862
     18 N           6.6003   41.0714   11.2953 N.3     1  UNL1       -0.2886
     19 H           6.7383   40.1437   10.8943 H       1  UNL1        0.1237
     20 N          13.3871   42.1897    6.4158 N.pl3   1  UNL1       -0.2781
     21 H          12.9770   42.1263    5.5230 H       1  UNL1        0.1555
     22 C          14.5489   43.0196    6.5333 C.ar    1  UNL1        0.1642
     23 C          16.5362   43.7422    7.2618 C.ar    1  UNL1        0.0678
     24 C          16.2875   44.7612    6.3427 C.ar    1  UNL1        0.0528
     25 C          17.7741   43.7024    8.0831 C.3     1  UNL1        0.0527
     26 N          15.5796   42.7813    7.3692 N.ar    1  UNL1       -0.2283
     27 S          14.7915   44.4175    5.6452 S.2     1  UNL1       -0.0512
@<TRIPOS>BOND
     1     1     2    1
     2     2     7   ar
     3     3     4   ar
     4     4    20    1
     5     5     6   ar
     6     8     5    1
     7     8     9    1
     8     9    10    1
     9    10    11    1
    10    11    14    1
    11    12    14    1
    12    12     8    1
    13    16    13    1
    14    16    18    1
    15    17    18    1
    16    22    27   ar
    17    23    26   ar
    18    24    27   ar
    19    25    23    1
    20    14    13   am
    21    20    22    1
    22     2     3   ar
    23     4     6   ar
    24     5     7   ar
    25    13    15    2
    26    22    26   ar
    27    23    24   ar
    28    18    19    1
    29    20    21    1
@<TRIPOS>MOLECULE
Molport-052-054-344 MCULE-5428378396 PubChem-110095880
 27 29 0 0 0
SMALL
GASTEIGER

@<TRIPOS>ATOM
      1 C          17.3388   44.1686    6.8768 C.3     1  UNL1        0.0522
      2 C          16.3302   43.1516    7.2723 C.ar    1  UNL1        0.0635
      3 C          15.1129   43.0791    6.5988 C.ar    1  UNL1        0.0492
      4 C          14.1831   42.1109    6.9932 C.ar    1  UNL1        0.1361
      5 C          15.6826   41.3550    8.6657 C.ar    1  UNL1        0.1414
      6 N          14.4909   41.2716    8.0172 N.ar    1  UNL1       -0.2159
      7 N          16.5947   42.2925    8.2898 N.ar    1  UNL1       -0.2348
      8 C          15.9791   40.4119    9.7838 C.3     1  UNL1        0.0785
      9 C          17.4890   40.2339    9.9549 C.3     1  UNL1        0.0110
     10 C          17.7848   39.2690   11.1013 C.3     1  UNL1        0.0220
     11 C          17.1183   37.9228   10.8345 C.3     1  UNL1        0.0935
     12 C          15.3024   39.0629    9.5414 C.3     1  UNL1        0.1009
     13 C          14.7102   37.4447   11.3853 C.2     1  UNL1        0.2418
     14 N          15.6927   38.1260   10.5917 N.am    1  UNL1       -0.2780
     15 O          15.0704   36.6406   12.2861 O.2     1  UNL1       -0.2734
     16 C          13.2497   37.6470   11.1415 C.3     1  UNL1        0.1552
     17 C          12.7867   35.8959    9.6674 C.3     1  UNL1        0.0862
     18 N          12.5841   36.3605   11.0283 N.3     1  UNL1       -0.2886
     19 H          11.5873   36.4639   11.2184 H       1  UNL1        0.1237
     20 N          12.9113   41.9774    6.3450 N.pl3   1  UNL1       -0.2781
     21 H          12.8989   42.0910    5.3671 H       1  UNL1        0.1555
     22 C          11.6567   41.6954    6.9764 C.ar    1  UNL1        0.1642
     23 C          10.0494   41.7112    8.5315 C.ar    1  UNL1        0.0678
     24 C           9.3978   40.9134    7.5912 C.ar    1  UNL1        0.0528
     25 C           9.4254   42.0720    9.8311 C.3     1  UNL1        0.0527
     26 N          11.2944   42.1432    8.1955 N.ar    1  UNL1       -0.2283
     27 S          10.4540   40.7578    6.2863 S.2     1  UNL1       -0.0512
@<TRIPOS>BOND
     1     1     2    1
     2     2     7   ar
     3     3     4   ar
     4     4    20    1
     5     5     6   ar
     6     8     5    1
     7     8     9    1
     8     9    10    1
     9    10    11    1
    10    11    14    1
    11    12    14    1
    12    12     8    1
    13    16    13    1
    14    16    18    1
    15    17    18    1
    16    22    27   ar
    17    23    26   ar
    18    24    27   ar
    19    25    23    1
    20    14    13   am
    21    20    22    1
    22     2     3   ar
    23     4     6   ar
    24     5     7   ar
    25    13    15    2
    26    22    26   ar
    27    23    24   ar
    28    18    19    1
    29    20    21    1
@<TRIPOS>MOLECULE
Molport-052-054-344 MCULE-5428378396 PubChem-110095880
 27 29 0 0 0
SMALL
GASTEIGER

@<TRIPOS>ATOM
      1 C          13.6281   37.2749   11.1761 C.3     1  UNL1        0.0522
      2 C          13.6745   38.3980   10.2043 C.ar    1  UNL1        0.0635
      3 C          14.8470   39.1331   10.0445 C.ar    1  UNL1        0.0492
      4 C          14.8608   40.1844    9.1214 C.ar    1  UNL1        0.1361
      5 C          12.5987   39.7332    8.5767 C.ar    1  UNL1        0.1414
      6 N          13.7359   40.4587    8.4093 N.ar    1  UNL1       -0.2159
      7 N          12.5744   38.7078    9.4713 N.ar    1  UNL1       -0.2348
      8 C          11.3872   40.0685    7.7723 C.3     1  UNL1        0.0785
      9 C          11.6648   39.8934    6.2779 C.3     1  UNL1        0.0110
     10 C          10.4206   40.2367    5.4614 C.3     1  UNL1        0.0220
     11 C           9.9827   41.6682    5.7559 C.3     1  UNL1        0.0935
     12 C          10.9234   41.4943    8.0698 C.3     1  UNL1        0.1009
     13 C           8.5536   42.2930    7.7303 C.2     1  UNL1        0.2418
     14 N           9.8041   41.8353    7.1956 N.am    1  UNL1       -0.2780
     15 O           7.6017   42.5815    6.9567 O.2     1  UNL1       -0.2734
     16 C           8.3643   42.4674    9.2024 C.3     1  UNL1        0.1552
     17 C           6.3706   41.5252    9.9714 C.3     1  UNL1        0.0862
     18 N           7.7851   41.2632    9.7729 N.3     1  UNL1       -0.2886
     19 H           8.2303   41.0493   10.6653 H       1  UNL1        0.1237
     20 N          16.0317   40.9824    8.9037 N.pl3   1  UNL1       -0.2781
     21 H          16.8621   40.6769    9.3355 H       1  UNL1        0.1555
     22 C          16.1157   42.1795    8.1212 C.ar    1  UNL1        0.1642
     23 C          15.5552   43.7365    6.6166 C.ar    1  UNL1        0.0678
     24 C          16.7435   44.3173    7.0592 C.ar    1  UNL1        0.0528
     25 C          14.7120   44.3630    5.5655 C.3     1  UNL1        0.0527
     26 N          15.2071   42.5582    7.1999 N.ar    1  UNL1       -0.2283
     27 S          17.3671   43.2850    8.2374 S.2     1  UNL1       -0.0512
@<TRIPOS>BOND
     1     1     2    1
     2     2     7   ar
     3     3     4   ar
     4     4    20    1
     5     5     6   ar
     6     8     5    1
     7     8     9    1
     8     9    10    1
     9    10    11    1
    10    11    14    1
    11    12    14    1
    12    12     8    1
    13    16    13    1
    14    16    18    1
    15    17    18    1
    16    22    27   ar
    17    23    26   ar
    18    24    27   ar
    19    25    23    1
    20    14    13   am
    21    20    22    1
    22     2     3   ar
    23     4     6   ar
    24     5     7   ar
    25    13    15    2
    26    22    26   ar
    27    23    24   ar
    28    18    19    1
    29    20    21    1
