@<TRIPOS>MOLECULE
MolPort-021-744-327 LN00413324 MCULE-3927398453
 30 33 0 0 0
SMALL
GASTEIGER

@<TRIPOS>ATOM
      1 C          10.3715   41.2992    5.6363 C.2     1  UNL1        0.2276
      2 N           9.4931   41.6054    6.7246 N.am    1  UNL1       -0.2679
      3 O           9.9573   40.6749    4.6232 O.2     1  UNL1       -0.2747
      4 H           9.8661   42.1161    7.4791 H       1  UNL1        0.1563
      5 C           5.1726   41.2643    9.6254 C.ar    1  UNL1        0.0599
      6 C           6.4220   41.7886   10.0633 C.ar    1  UNL1        0.0149
      7 C           7.5229   41.8376    9.1897 C.ar    1  UNL1        0.0071
      8 C           7.3173   41.3534    7.9059 C.ar    1  UNL1        0.0687
      9 C           8.1163   41.2273    6.8011 C.ar    1  UNL1        0.1566
     10 C           6.1161   40.8593    7.5080 C.ar    1  UNL1        0.1584
     11 N           7.3985   40.6766    5.7922 N.ar    1  UNL1       -0.1561
     12 N           6.1606   40.4486    6.2282 N.ar    1  UNL1       -0.2584
     13 N           5.0461   40.8060    8.3375 N.ar    1  UNL1       -0.2314
     14 H           5.4202   40.0550    5.7123 H       1  UNL1        0.1906
     15 C           3.9901   39.9702   11.4484 C.3     1  UNL1        0.0059
     16 C           3.9757   41.1982   10.5490 C.3     1  UNL1        0.0355
     17 C           3.9509   42.4296   11.4348 C.3     1  UNL1        0.0059
     18 C           2.7020   41.1655    9.7253 C.3     1  UNL1        0.0059
     19 C          11.8062   41.7019    5.7150 C.3     1  UNL1        0.0933
     20 C          12.4020   41.3017    7.0606 C.3     1  UNL1        0.0733
     21 C          13.7750   41.8646    7.2824 C.ar    1  UNL1        0.1186
     22 C          15.4658   43.1005    7.0748 C.ar    1  UNL1        0.1164
     23 C          16.4139   44.0577    6.7319 C.ar    1  UNL1        0.0238
     24 C          17.6566   43.9844    7.3874 C.ar    1  UNL1        0.0223
     25 C          17.8910   42.9697    8.3447 C.ar    1  UNL1        0.1006
     26 C          15.7280   42.1425    7.9974 C.ar    1  UNL1        0.1592
     27 N          14.2219   42.9527    6.5987 N.ar    1  UNL1       -0.2296
     28 N          16.9183   42.0550    8.6403 N.ar    1  UNL1       -0.2254
     29 N          14.6733   41.3363    8.1614 N.ar    1  UNL1       -0.3262
     30 H          14.5720   40.5623    8.7614 H       1  UNL1        0.1685
@<TRIPOS>BOND
     1    15    16    1
     2    16    17    1
     3    16    18    1
     4    16     5    1
     5     5    13   ar
     6     6     7   ar
     7     8     9   ar
     8     9     2    1
     9    19     1    1
    10    19    20    1
    11    20    21    1
    12    22    27   ar
    13    23    24   ar
    14    25    28   ar
    15    26    29   ar
    16    26    22   ar
    17    10     8   ar
    18     2     1   am
    19    29    21   ar
    20    12    11   ar
    21    12    10   ar
    22     5     6   ar
    23     7     8   ar
    24     9    11   ar
    25     1     3    2
    26    21    27   ar
    27    22    23   ar
    28    24    25   ar
    29    26    28   ar
    30    10    13   ar
    31     2     4    1
    32    29    30    1
    33    12    14    1
@<TRIPOS>MOLECULE
MolPort-021-744-327 LN00413324 MCULE-3927398453
 30 33 0 0 0
SMALL
GASTEIGER

@<TRIPOS>ATOM
      1 C          10.6189   40.1064    7.9234 C.2     1  UNL1        0.2276
      2 N          10.4563   41.1679    8.8702 N.am    1  UNL1       -0.2679
      3 O           9.7885   39.1609    7.8587 O.2     1  UNL1       -0.2747
      4 H          11.1231   41.8922    8.8590 H       1  UNL1        0.1563
      5 C           5.3711   41.8904    9.7737 C.ar    1  UNL1        0.0599
      6 C           5.9878   41.8746    8.4902 C.ar    1  UNL1        0.0149
      7 C           7.3724   41.6641    8.3644 C.ar    1  UNL1        0.0071
      8 C           8.0806   41.4781    9.5429 C.ar    1  UNL1        0.0687
      9 C           9.4011   41.2582    9.8307 C.ar    1  UNL1        0.1566
     10 C           7.4720   41.4948   10.7573 C.ar    1  UNL1        0.1584
     11 N           9.5529   41.1501   11.1730 N.ar    1  UNL1       -0.1561
     12 N           8.3600   41.2960   11.7475 N.ar    1  UNL1       -0.2584
     13 N           6.1391   41.6957   10.8949 N.ar    1  UNL1       -0.2314
     14 H           8.1657   41.2644   12.7121 H       1  UNL1        0.1906
     15 C           3.0496   40.9394    9.4532 C.3     1  UNL1        0.0059
     16 C           3.8838   42.1188    9.9333 C.3     1  UNL1        0.0355
     17 C           3.5621   42.3576   11.3966 C.3     1  UNL1        0.0059
     18 C           3.4716   43.3436    9.1383 C.3     1  UNL1        0.0059
     19 C          11.8046   40.1056    7.0174 C.3     1  UNL1        0.0933
     20 C          11.8487   41.3870    6.1915 C.3     1  UNL1        0.0733
     21 C          13.1447   42.1294    6.3334 C.ar    1  UNL1        0.1186
     22 C          15.0555   42.6610    7.0374 C.ar    1  UNL1        0.1164
     23 C          16.2818   42.7736    7.6826 C.ar    1  UNL1        0.0238
     24 C          17.1034   43.8506    7.3022 C.ar    1  UNL1        0.0223
     25 C          16.6661   44.7543    6.3057 C.ar    1  UNL1        0.1006
     26 C          14.6711   43.5480    6.0871 C.ar    1  UNL1        0.1592
     27 N          14.1015   41.7375    7.2179 N.ar    1  UNL1       -0.2296
     28 N          15.4478   44.5917    5.7062 N.ar    1  UNL1       -0.2254
     29 N          13.4594   43.2415    5.6103 N.ar    1  UNL1       -0.3262
     30 H          12.9318   43.7000    4.9170 H       1  UNL1        0.1685
@<TRIPOS>BOND
     1    15    16    1
     2    16    17    1
     3    16    18    1
     4    16     5    1
     5     5    13   ar
     6     6     7   ar
     7     8     9   ar
     8     9     2    1
     9    19     1    1
    10    19    20    1
    11    20    21    1
    12    22    27   ar
    13    23    24   ar
    14    25    28   ar
    15    26    29   ar
    16    26    22   ar
    17    10     8   ar
    18     2     1   am
    19    29    21   ar
    20    12    11   ar
    21    12    10   ar
    22     5     6   ar
    23     7     8   ar
    24     9    11   ar
    25     1     3    2
    26    21    27   ar
    27    22    23   ar
    28    24    25   ar
    29    26    28   ar
    30    10    13   ar
    31     2     4    1
    32    29    30    1
    33    12    14    1
@<TRIPOS>MOLECULE
MolPort-021-744-327 LN00413324 MCULE-3927398453
 30 33 0 0 0
SMALL
GASTEIGER

@<TRIPOS>ATOM
      1 C          11.6379   41.3681    9.2544 C.2     1  UNL1        0.2276
      2 N          10.4279   40.6156    9.1152 N.am    1  UNL1       -0.2679
      3 O          11.7228   42.5477    8.8195 O.2     1  UNL1       -0.2747
      4 H          10.4118   39.7076    9.4952 H       1  UNL1        0.1563
      5 C           5.4008   41.9346    9.5471 C.ar    1  UNL1        0.0599
      6 C           6.2360   41.5022   10.6164 C.ar    1  UNL1        0.0149
      7 C           7.5842   41.1768   10.3844 C.ar    1  UNL1        0.0071
      8 C           8.0358   41.3010    9.0785 C.ar    1  UNL1        0.0687
      9 C           9.2410   41.0800    8.4671 C.ar    1  UNL1        0.1566
     10 C           7.2224   41.7175    8.0733 C.ar    1  UNL1        0.1584
     11 N           9.1291   41.3609    7.1462 N.ar    1  UNL1       -0.1561
     12 N           7.8807   41.7558    6.9012 N.ar    1  UNL1       -0.2584
     13 N           5.9218   42.0352    8.2809 N.ar    1  UNL1       -0.2314
     14 H           7.5108   42.0242    6.0292 H       1  UNL1        0.1906
     15 C           3.5321   43.5696    9.0665 C.3     1  UNL1        0.0059
     16 C           3.9464   42.2863    9.7726 C.3     1  UNL1        0.0355
     17 C           3.0677   41.1617    9.2579 C.3     1  UNL1        0.0059
     18 C           3.6924   42.4614   11.2581 C.3     1  UNL1        0.0059
     19 C          12.8253   40.7363    9.9004 C.3     1  UNL1        0.0933
     20 C          13.7695   40.1676    8.8464 C.3     1  UNL1        0.0733
     21 C          14.7177   41.1925    8.2972 C.ar    1  UNL1        0.1186
     22 C          16.4654   42.3364    8.0396 C.ar    1  UNL1        0.1164
     23 C          17.7266   42.9191    8.0916 C.ar    1  UNL1        0.0238
     24 C          17.9718   43.9834    7.2048 C.ar    1  UNL1        0.0223
     25 C          16.9568   44.4106    6.3170 C.ar    1  UNL1        0.1006
     26 C          15.5180   42.7743    7.1747 C.ar    1  UNL1        0.1592
     27 N          15.9862   41.3218    8.7721 N.ar    1  UNL1       -0.2296
     28 N          15.7344   43.7976    6.3122 N.ar    1  UNL1       -0.2254
     29 N          14.3896   42.0679    7.3049 N.ar    1  UNL1       -0.3262
     30 H          13.5420   42.1569    6.8120 H       1  UNL1        0.1685
@<TRIPOS>BOND
     1    15    16    1
     2    16    17    1
     3    16    18    1
     4    16     5    1
     5     5    13   ar
     6     6     7   ar
     7     8     9   ar
     8     9     2    1
     9    19     1    1
    10    19    20    1
    11    20    21    1
    12    22    27   ar
    13    23    24   ar
    14    25    28   ar
    15    26    29   ar
    16    26    22   ar
    17    10     8   ar
    18     2     1   am
    19    29    21   ar
    20    12    11   ar
    21    12    10   ar
    22     5     6   ar
    23     7     8   ar
    24     9    11   ar
    25     1     3    2
    26    21    27   ar
    27    22    23   ar
    28    24    25   ar
    29    26    28   ar
    30    10    13   ar
    31     2     4    1
    32    29    30    1
    33    12    14    1
@<TRIPOS>MOLECULE
MolPort-021-744-327 LN00413324 MCULE-3927398453
 30 33 0 0 0
SMALL
GASTEIGER

@<TRIPOS>ATOM
      1 C          13.5488   39.0424    9.1184 C.2     1  UNL1        0.2276
      2 N          14.6873   38.6660    9.9006 N.am    1  UNL1       -0.2679
      3 O          13.3154   38.4969    8.0068 O.2     1  UNL1       -0.2747
      4 H          14.8060   39.1090   10.7717 H       1  UNL1        0.1563
      5 C          15.7174   33.7196    8.6085 C.ar    1  UNL1        0.0599
      6 C          14.4302   34.2393    8.9259 C.ar    1  UNL1        0.0149
      7 C          14.2682   35.5967    9.2553 C.ar    1  UNL1        0.0071
      8 C          15.4156   36.3766    9.2515 C.ar    1  UNL1        0.0687
      9 C          15.6654   37.6969    9.5152 C.ar    1  UNL1        0.1566
     10 C          16.6340   35.8609    8.9434 C.ar    1  UNL1        0.1584
     11 N          16.9901   37.9390    9.3637 N.ar    1  UNL1       -0.1561
     12 N          17.5906   36.8039    9.0097 N.ar    1  UNL1       -0.2584
     13 N          16.8063   34.5556    8.6234 N.ar    1  UNL1       -0.2314
     14 H          18.5506   36.6792    8.8308 H       1  UNL1        0.1906
     15 C          14.7048   31.4022    8.5879 C.3     1  UNL1        0.0059
     16 C          15.9161   32.2618    8.2548 C.3     1  UNL1        0.0355
     17 C          16.1888   32.1339    6.7678 C.3     1  UNL1        0.0059
     18 C          17.1081   31.7139    9.0170 C.3     1  UNL1        0.0059
     19 C          12.6395   40.1163    9.6146 C.3     1  UNL1        0.0933
     20 C          12.0161   40.8729    8.4462 C.3     1  UNL1        0.0733
     21 C          12.9786   41.8081    7.7755 C.ar    1  UNL1        0.1186
     22 C          14.7869   42.7512    7.2558 C.ar    1  UNL1        0.1164
     23 C          16.1016   43.1777    7.1066 C.ar    1  UNL1        0.0238
     24 C          16.3247   44.2537    6.2279 C.ar    1  UNL1        0.0223
     25 C          15.2357   44.8462    5.5467 C.ar    1  UNL1        0.1006
     26 C          13.7692   43.3451    6.5857 C.ar    1  UNL1        0.1592
     27 N          14.3152   41.7607    8.0253 N.ar    1  UNL1       -0.2296
     28 N          13.9630   44.3824    5.7346 N.ar    1  UNL1       -0.2254
     29 N          12.5996   42.7701    6.8868 N.ar    1  UNL1       -0.3262
     30 H          11.6987   42.9856    6.5532 H       1  UNL1        0.1685
@<TRIPOS>BOND
     1    15    16    1
     2    16    17    1
     3    16    18    1
     4    16     5    1
     5     5    13   ar
     6     6     7   ar
     7     8     9   ar
     8     9     2    1
     9    19     1    1
    10    19    20    1
    11    20    21    1
    12    22    27   ar
    13    23    24   ar
    14    25    28   ar
    15    26    29   ar
    16    26    22   ar
    17    10     8   ar
    18     2     1   am
    19    29    21   ar
    20    12    11   ar
    21    12    10   ar
    22     5     6   ar
    23     7     8   ar
    24     9    11   ar
    25     1     3    2
    26    21    27   ar
    27    22    23   ar
    28    24    25   ar
    29    26    28   ar
    30    10    13   ar
    31     2     4    1
    32    29    30    1
    33    12    14    1
@<TRIPOS>MOLECULE
MolPort-021-744-327 LN00413324 MCULE-3927398453
 30 33 0 0 0
SMALL
GASTEIGER

@<TRIPOS>ATOM
      1 C          10.7003   39.2039    7.4655 C.2     1  UNL1        0.2276
      2 N           9.8610   40.0407    6.6623 N.am    1  UNL1       -0.2679
      3 O          10.2068   38.3429    8.2419 O.2     1  UNL1       -0.2747
      4 H          10.3027   40.6789    6.0566 H       1  UNL1        0.1563
      5 C           5.4493   41.5626    8.9901 C.ar    1  UNL1        0.0599
      6 C           6.7660   41.8999    9.4147 C.ar    1  UNL1        0.0149
      7 C           7.8875   41.4367    8.7041 C.ar    1  UNL1        0.0071
      8 C           7.6336   40.6490    7.5906 C.ar    1  UNL1        0.0687
      9 C           8.4314   40.0217    6.6712 C.ar    1  UNL1        0.1566
     10 C           6.3691   40.3408    7.2015 C.ar    1  UNL1        0.1584
     11 N           7.6515   39.3696    5.7753 N.ar    1  UNL1       -0.1561
     12 N           6.3752   39.5664    6.1020 N.ar    1  UNL1       -0.2584
     13 N           5.2786   40.7799    7.8751 N.ar    1  UNL1       -0.2314
     14 H           5.5874   39.2127    5.6293 H       1  UNL1        0.1906
     15 C           4.4184   42.0311   11.2515 C.3     1  UNL1        0.0059
     16 C           4.2281   42.0465    9.7413 C.3     1  UNL1        0.0355
     17 C           3.9063   43.4687    9.3223 C.3     1  UNL1        0.0059
     18 C           3.0433   41.1604    9.4055 C.3     1  UNL1        0.0059
     19 C          12.1816   39.3725    7.4023 C.3     1  UNL1        0.0933
     20 C          12.6404   40.4498    8.3795 C.3     1  UNL1        0.0733
     21 C          13.4173   41.5483    7.7157 C.ar    1  UNL1        0.1186
     22 C          15.0377   42.7707    7.1594 C.ar    1  UNL1        0.1164
     23 C          16.2666   43.3919    6.9676 C.ar    1  UNL1        0.0238
     24 C          16.2805   44.5318    6.1430 C.ar    1  UNL1        0.0223
     25 C          15.0793   44.9921    5.5547 C.ar    1  UNL1        0.1006
     26 C          13.9074   43.2423    6.5785 C.ar    1  UNL1        0.1592
     27 N          14.7595   41.6844    7.8930 N.ar    1  UNL1       -0.2296
     28 N          13.8996   44.3383    5.7806 N.ar    1  UNL1       -0.2254
     29 N          12.8522   42.4879    6.9055 N.ar    1  UNL1       -0.3262
     30 H          11.9115   42.5859    6.6320 H       1  UNL1        0.1685
@<TRIPOS>BOND
     1    15    16    1
     2    16    17    1
     3    16    18    1
     4    16     5    1
     5     5    13   ar
     6     6     7   ar
     7     8     9   ar
     8     9     2    1
     9    19     1    1
    10    19    20    1
    11    20    21    1
    12    22    27   ar
    13    23    24   ar
    14    25    28   ar
    15    26    29   ar
    16    26    22   ar
    17    10     8   ar
    18     2     1   am
    19    29    21   ar
    20    12    11   ar
    21    12    10   ar
    22     5     6   ar
    23     7     8   ar
    24     9    11   ar
    25     1     3    2
    26    21    27   ar
    27    22    23   ar
    28    24    25   ar
    29    26    28   ar
    30    10    13   ar
    31     2     4    1
    32    29    30    1
    33    12    14    1
@<TRIPOS>MOLECULE
MolPort-021-744-327 LN00413324 MCULE-3927398453
 30 33 0 0 0
SMALL
GASTEIGER

@<TRIPOS>ATOM
      1 C          14.5762   43.2803    6.4079 C.2     1  UNL1        0.2276
      2 N          13.8760   42.0432    6.5789 N.am    1  UNL1       -0.2679
      3 O          13.9600   44.3408    6.1190 O.2     1  UNL1       -0.2747
      4 H          14.4065   41.2521    6.8276 H       1  UNL1        0.1563
      5 C           9.1406   42.1693    8.7602 C.ar    1  UNL1        0.0599
      6 C          10.3631   42.4782    9.4218 C.ar    1  UNL1        0.0149
      7 C          11.5861   42.4165    8.7305 C.ar    1  UNL1        0.0071
      8 C          11.5252   42.0440    7.3955 C.ar    1  UNL1        0.0687
      9 C          12.4664   41.8673    6.4167 C.ar    1  UNL1        0.1566
     10 C          10.3475   41.7556    6.7829 C.ar    1  UNL1        0.1584
     11 N          11.8516   41.4880    5.2702 N.ar    1  UNL1       -0.1561
     12 N          10.5405   41.4187    5.4953 N.ar    1  UNL1       -0.2584
     13 N           9.1612   41.8110    7.4350 N.ar    1  UNL1       -0.2314
     14 H           9.8459   41.1689    4.8439 H       1  UNL1        0.1906
     15 C           7.9451   41.9716   10.9801 C.3     1  UNL1        0.0059
     16 C           7.8135   42.2253    9.4849 C.3     1  UNL1        0.0355
     17 C           7.1892   43.5948    9.2936 C.3     1  UNL1        0.0059
     18 C           6.8777   41.1791    8.9089 C.3     1  UNL1        0.0059
     19 C          16.0615   43.3088    6.5472 C.3     1  UNL1        0.0933
     20 C          16.4606   43.3706    8.0179 C.3     1  UNL1        0.0733
     21 C          16.6056   42.0139    8.6417 C.ar    1  UNL1        0.1186
     22 C          16.0878   40.1522    9.4757 C.ar    1  UNL1        0.1164
     23 C          15.4640   39.0128    9.9711 C.ar    1  UNL1        0.0238
     24 C          16.2981   38.0112   10.5007 C.ar    1  UNL1        0.0223
     25 C          17.7009   38.1927   10.5100 C.ar    1  UNL1        0.1006
     26 C          17.4361   40.2899    9.5026 C.ar    1  UNL1        0.1592
     27 N          15.5251   41.2381    8.9280 N.ar    1  UNL1       -0.2296
     28 N          18.2570   39.3367   10.0080 N.ar    1  UNL1       -0.2254
     29 N          17.8068   41.4624    8.9760 N.ar    1  UNL1       -0.3262
     30 H          18.7121   41.8314    8.8601 H       1  UNL1        0.1685
@<TRIPOS>BOND
     1    15    16    1
     2    16    17    1
     3    16    18    1
     4    16     5    1
     5     5    13   ar
     6     6     7   ar
     7     8     9   ar
     8     9     2    1
     9    19     1    1
    10    19    20    1
    11    20    21    1
    12    22    27   ar
    13    23    24   ar
    14    25    28   ar
    15    26    29   ar
    16    26    22   ar
    17    10     8   ar
    18     2     1   am
    19    29    21   ar
    20    12    11   ar
    21    12    10   ar
    22     5     6   ar
    23     7     8   ar
    24     9    11   ar
    25     1     3    2
    26    21    27   ar
    27    22    23   ar
    28    24    25   ar
    29    26    28   ar
    30    10    13   ar
    31     2     4    1
    32    29    30    1
    33    12    14    1
@<TRIPOS>MOLECULE
MolPort-021-744-327 LN00413324 MCULE-3927398453
 30 33 0 0 0
SMALL
GASTEIGER

@<TRIPOS>ATOM
      1 C          12.1976   40.7346   10.3033 C.2     1  UNL1        0.2276
      2 N          11.7834   41.8310    9.4810 N.am    1  UNL1       -0.2679
      3 O          11.5353   40.4002   11.3218 O.2     1  UNL1       -0.2747
      4 H          12.3264   42.0317    8.6848 H       1  UNL1        0.1563
      5 C           6.5885   42.2899    9.4535 C.ar    1  UNL1        0.0599
      6 C           7.3161   41.1198    9.0941 C.ar    1  UNL1        0.0149
      7 C           8.7214   41.1074    9.1449 C.ar    1  UNL1        0.0071
      8 C           9.3369   42.2804    9.5572 C.ar    1  UNL1        0.0687
      9 C          10.6425   42.6572    9.7261 C.ar    1  UNL1        0.1566
     10 C           8.6234   43.3851    9.8978 C.ar    1  UNL1        0.1584
     11 N          10.6840   43.9428   10.1527 N.ar    1  UNL1       -0.1561
     12 N           9.4353   44.3943   10.2596 N.ar    1  UNL1       -0.2584
     13 N           7.2694   43.4125    9.8547 N.ar    1  UNL1       -0.2314
     14 H           9.1597   45.2943   10.5482 H       1  UNL1        0.1906
     15 C           4.4388   42.3392   10.7849 C.3     1  UNL1        0.0059
     16 C           5.0766   42.3273    9.4028 C.3     1  UNL1        0.0355
     17 C           4.6252   43.5743    8.6659 C.3     1  UNL1        0.0059
     18 C           4.5649   41.1092    8.6570 C.3     1  UNL1        0.0059
     19 C          13.4476   39.9937    9.9643 C.3     1  UNL1        0.0933
     20 C          13.6157   39.8901    8.4521 C.3     1  UNL1        0.0733
     21 C          14.1573   41.1467    7.8368 C.ar    1  UNL1        0.1186
     22 C          14.2871   42.8600    6.6213 C.ar    1  UNL1        0.1164
     23 C          14.1008   43.9046    5.7231 C.ar    1  UNL1        0.0238
     24 C          15.1481   44.8368    5.6065 C.ar    1  UNL1        0.0223
     25 C          16.3194   44.6834    6.3846 C.ar    1  UNL1        0.1006
     26 C          15.4248   42.7464    7.3495 C.ar    1  UNL1        0.1592
     27 N          13.4526   41.8524    6.9112 N.ar    1  UNL1       -0.2296
     28 N          16.4450   43.6338    7.2522 N.ar    1  UNL1       -0.2254
     29 N          15.3798   41.6684    8.1403 N.ar    1  UNL1       -0.3262
     30 H          16.0544   41.3376    8.7764 H       1  UNL1        0.1685
@<TRIPOS>BOND
     1    15    16    1
     2    16    17    1
     3    16    18    1
     4    16     5    1
     5     5    13   ar
     6     6     7   ar
     7     8     9   ar
     8     9     2    1
     9    19     1    1
    10    19    20    1
    11    20    21    1
    12    22    27   ar
    13    23    24   ar
    14    25    28   ar
    15    26    29   ar
    16    26    22   ar
    17    10     8   ar
    18     2     1   am
    19    29    21   ar
    20    12    11   ar
    21    12    10   ar
    22     5     6   ar
    23     7     8   ar
    24     9    11   ar
    25     1     3    2
    26    21    27   ar
    27    22    23   ar
    28    24    25   ar
    29    26    28   ar
    30    10    13   ar
    31     2     4    1
    32    29    30    1
    33    12    14    1
@<TRIPOS>MOLECULE
MolPort-021-744-327 LN00413324 MCULE-3927398453
 30 33 0 0 0
SMALL
GASTEIGER

@<TRIPOS>ATOM
      1 C          12.2640   39.7023   10.6517 C.2     1  UNL1        0.2276
      2 N          11.6586   40.9126   11.1190 N.am    1  UNL1       -0.2679
      3 O          11.5612   38.7465   10.2269 O.2     1  UNL1       -0.2747
      4 H          12.2583   41.6344   11.4169 H       1  UNL1        0.1563
      5 C           7.3804   42.7234    8.7493 C.ar    1  UNL1        0.0599
      6 C           8.6863   42.6885    8.1826 C.ar    1  UNL1        0.0149
      7 C           9.7699   42.1703    8.9138 C.ar    1  UNL1        0.0071
      8 C           9.4905   41.7075   10.1915 C.ar    1  UNL1        0.0687
      9 C          10.2511   41.1547   11.1870 C.ar    1  UNL1        0.1566
     10 C           8.2365   41.7481   10.7124 C.ar    1  UNL1        0.1584
     11 N           9.4605   40.8826   12.2534 N.ar    1  UNL1       -0.1561
     12 N           8.2136   41.2489   11.9609 N.ar    1  UNL1       -0.2584
     13 N           7.1823   42.2436   10.0203 N.ar    1  UNL1       -0.2314
     14 H           7.4262   41.1695   12.5466 H       1  UNL1        0.1906
     15 C           5.9981   44.7713    8.2094 C.3     1  UNL1        0.0059
     16 C           6.2005   43.2798    7.9825 C.3     1  UNL1        0.0355
     17 C           6.4100   43.0544    6.4969 C.3     1  UNL1        0.0059
     18 C           4.9346   42.5610    8.4100 C.3     1  UNL1        0.0059
     19 C          13.7487   39.5601   10.6935 C.3     1  UNL1        0.0933
     20 C          14.3065   39.3492    9.2898 C.3     1  UNL1        0.0733
     21 C          14.9982   40.5648    8.7471 C.ar    1  UNL1        0.1186
     22 C          16.4900   42.0121    8.4159 C.ar    1  UNL1        0.1164
     23 C          17.6360   42.7986    8.3872 C.ar    1  UNL1        0.0238
     24 C          17.5906   43.9589    7.5928 C.ar    1  UNL1        0.0223
     25 C          16.4154   44.2752    6.8718 C.ar    1  UNL1        0.1006
     26 C          15.3821   42.3488    7.7112 C.ar    1  UNL1        0.1592
     27 N          16.2787   40.8727    9.0889 N.ar    1  UNL1       -0.2296
     28 N          15.3182   43.4618    6.9398 N.ar    1  UNL1       -0.2254
     29 N          14.4091   41.4489    7.8925 N.ar    1  UNL1       -0.3262
     30 H          13.5028   41.4298    7.5086 H       1  UNL1        0.1685
@<TRIPOS>BOND
     1    15    16    1
     2    16    17    1
     3    16    18    1
     4    16     5    1
     5     5    13   ar
     6     6     7   ar
     7     8     9   ar
     8     9     2    1
     9    19     1    1
    10    19    20    1
    11    20    21    1
    12    22    27   ar
    13    23    24   ar
    14    25    28   ar
    15    26    29   ar
    16    26    22   ar
    17    10     8   ar
    18     2     1   am
    19    29    21   ar
    20    12    11   ar
    21    12    10   ar
    22     5     6   ar
    23     7     8   ar
    24     9    11   ar
    25     1     3    2
    26    21    27   ar
    27    22    23   ar
    28    24    25   ar
    29    26    28   ar
    30    10    13   ar
    31     2     4    1
    32    29    30    1
    33    12    14    1
@<TRIPOS>MOLECULE
MolPort-021-744-327 LN00413324 MCULE-3927398453
 30 33 0 0 0
SMALL
GASTEIGER

@<TRIPOS>ATOM
      1 C          11.4999   41.9941    9.1000 C.2     1  UNL1        0.2276
      2 N          10.1183   42.3471    8.9720 N.am    1  UNL1       -0.2679
      3 O          11.9654   41.5786   10.1947 O.2     1  UNL1       -0.2747
      4 H           9.8055   42.6427    8.0865 H       1  UNL1        0.1563
      5 C           5.1956   41.4104   10.4166 C.ar    1  UNL1        0.0599
      6 C           5.7077   41.2779    9.0945 C.ar    1  UNL1        0.0149
      7 C           7.0592   41.5525    8.8201 C.ar    1  UNL1        0.0071
      8 C           7.8412   41.9512    9.8945 C.ar    1  UNL1        0.0687
      9 C           9.1574   42.3037   10.0299 C.ar    1  UNL1        0.1566
     10 C           7.3328   42.0691   11.1487 C.ar    1  UNL1        0.1584
     11 N           9.4044   42.6162   11.3251 N.ar    1  UNL1       -0.1561
     12 N           8.2763   42.4712   12.0186 N.ar    1  UNL1       -0.2584
     13 N           6.0333   41.8077   11.4292 N.ar    1  UNL1       -0.2314
     14 H           8.1563   42.6283   12.9830 H       1  UNL1        0.1906
     15 C           2.8708   41.0451    9.4902 C.3     1  UNL1        0.0059
     16 C           3.7441   41.1241   10.7345 C.3     1  UNL1        0.0355
     17 C           3.6378   39.8005   11.4683 C.3     1  UNL1        0.0059
     18 C           3.1956   42.2211   11.6276 C.3     1  UNL1        0.0059
     19 C          12.4085   42.1463    7.9262 C.3     1  UNL1        0.0933
     20 C          12.5364   40.8263    7.1730 C.3     1  UNL1        0.0733
     21 C          12.6330   39.6396    8.0859 C.ar    1  UNL1        0.1186
     22 C          12.0690   37.9357    9.1851 C.ar    1  UNL1        0.1164
     23 C          11.4268   36.8595    9.7868 C.ar    1  UNL1        0.0238
     24 C          12.1950   36.0691   10.6613 C.ar    1  UNL1        0.0223
     25 C          13.5541   36.3874   10.8906 C.ar    1  UNL1        0.1006
     26 C          13.3738   38.2092    9.4306 C.ar    1  UNL1        0.1592
     27 N          11.5648   38.8316    8.3256 N.ar    1  UNL1       -0.2296
     28 N          14.1312   37.4601   10.2690 N.ar    1  UNL1       -0.2254
     29 N          13.7729   39.2865    8.7452 N.ar    1  UNL1       -0.3262
     30 H          14.6596   39.7136    8.7228 H       1  UNL1        0.1685
@<TRIPOS>BOND
     1    15    16    1
     2    16    17    1
     3    16    18    1
     4    16     5    1
     5     5    13   ar
     6     6     7   ar
     7     8     9   ar
     8     9     2    1
     9    19     1    1
    10    19    20    1
    11    20    21    1
    12    22    27   ar
    13    23    24   ar
    14    25    28   ar
    15    26    29   ar
    16    26    22   ar
    17    10     8   ar
    18     2     1   am
    19    29    21   ar
    20    12    11   ar
    21    12    10   ar
    22     5     6   ar
    23     7     8   ar
    24     9    11   ar
    25     1     3    2
    26    21    27   ar
    27    22    23   ar
    28    24    25   ar
    29    26    28   ar
    30    10    13   ar
    31     2     4    1
    32    29    30    1
    33    12    14    1
@<TRIPOS>MOLECULE
MolPort-021-744-327 LN00413324 MCULE-3927398453
 30 33 0 0 0
SMALL
GASTEIGER

@<TRIPOS>ATOM
      1 C           9.6975   41.8280    7.7612 C.2     1  UNL1        0.2276
      2 N          10.7698   41.0706    7.1900 N.am    1  UNL1       -0.2679
      3 O           9.8320   42.4095    8.8709 O.2     1  UNL1       -0.2747
      4 H          10.6155   40.6580    6.3096 H       1  UNL1        0.1563
      5 C          15.7579   42.5464    7.5630 C.ar    1  UNL1        0.0599
      6 C          14.7780   43.1517    6.7257 C.ar    1  UNL1        0.0149
      7 C          13.4559   42.6729    6.7102 C.ar    1  UNL1        0.0071
      8 C          13.1760   41.5989    7.5427 C.ar    1  UNL1        0.0687
      9 C          12.0475   40.8668    7.7987 C.ar    1  UNL1        0.1566
     10 C          14.1256   41.0375    8.3355 C.ar    1  UNL1        0.1584
     11 N          12.3350   39.9094    8.7136 N.ar    1  UNL1       -0.1561
     12 N          13.6205   40.0141    9.0468 N.ar    1  UNL1       -0.2584
     13 N          15.4033   41.4878    8.3621 N.ar    1  UNL1       -0.2314
     14 H          14.1074   39.4503    9.6904 H       1  UNL1        0.1906
     15 C          17.6316   43.6463    6.2685 C.3     1  UNL1        0.0059
     16 C          17.1872   43.0424    7.5932 C.3     1  UNL1        0.0355
     17 C          17.3321   44.1049    8.6665 C.3     1  UNL1        0.0059
     18 C          18.1164   41.8889    7.9218 C.3     1  UNL1        0.0059
     19 C           8.3914   41.9076    7.0440 C.3     1  UNL1        0.0933
     20 C           7.5987   43.1251    7.5081 C.3     1  UNL1        0.0733
     21 C           6.4592   42.7688    8.4168 C.ar    1  UNL1        0.1186
     22 C           5.4062   41.9519   10.0457 C.ar    1  UNL1        0.1164
     23 C           4.9829   41.3164   11.2075 C.ar    1  UNL1        0.0238
     24 C           3.6031   41.3452   11.4809 C.ar    1  UNL1        0.0223
     25 C           2.7207   42.0010   10.5907 C.ar    1  UNL1        0.1006
     26 C           4.5296   42.5696    9.2167 C.ar    1  UNL1        0.1592
     27 N           6.6517   42.0629    9.5639 N.ar    1  UNL1       -0.2296
     28 N           3.1969   42.6091    9.4622 N.ar    1  UNL1       -0.2254
     29 N           5.1622   43.1069    8.1676 N.ar    1  UNL1       -0.3262
     30 H           4.7882   43.6146    7.4116 H       1  UNL1        0.1685
@<TRIPOS>BOND
     1    15    16    1
     2    16    17    1
     3    16    18    1
     4    16     5    1
     5     5    13   ar
     6     6     7   ar
     7     8     9   ar
     8     9     2    1
     9    19     1    1
    10    19    20    1
    11    20    21    1
    12    22    27   ar
    13    23    24   ar
    14    25    28   ar
    15    26    29   ar
    16    26    22   ar
    17    10     8   ar
    18     2     1   am
    19    29    21   ar
    20    12    11   ar
    21    12    10   ar
    22     5     6   ar
    23     7     8   ar
    24     9    11   ar
    25     1     3    2
    26    21    27   ar
    27    22    23   ar
    28    24    25   ar
    29    26    28   ar
    30    10    13   ar
    31     2     4    1
    32    29    30    1
    33    12    14    1
