@<TRIPOS>MOLECULE
MolPort-001-980-337 871460 MCULE-2877066735 PubChem-1131055 ZINC000000871460
 28 30 0 0 0
SMALL
GASTEIGER

@<TRIPOS>ATOM
      1 C          12.9167   39.5194    8.9087 C.ar    1  UNL1        0.0903
      2 C          13.5316   41.3868    7.3490 C.ar    1  UNL1        0.0809
      3 C          12.2402   40.8877    7.1405 C.ar    1  UNL1       -0.0001
      4 C          11.3252   41.3867    6.0689 C.3     1  UNL1        0.0325
      5 C          11.9009   39.8271    8.0019 C.ar    1  UNL1        0.0847
      6 S          14.2325   40.5154    8.6121 S.2     1  UNL1       -0.0673
      7 C          14.1647   42.5226    6.6385 C.2     1  UNL1        0.2548
      8 C          15.6886   44.5067    6.7006 C.3     1  UNL1        0.0937
      9 C          17.0903   44.5674    6.0897 C.3     1  UNL1        0.0216
     10 C          18.1422   43.7870    6.8946 C.3     1  UNL1        0.0035
     11 C          17.5973   43.2034    8.1973 C.3     1  UNL1        0.0216
     12 C          16.3408   42.3818    7.9175 C.3     1  UNL1        0.0937
     13 N          15.3729   43.1394    7.1159 N.am    1  UNL1       -0.2757
     14 O          13.6165   42.9712    5.5950 O.2     1  UNL1       -0.2694
     15 C          13.6514   37.2326    9.7426 C.2     1  UNL1        0.2710
     16 N          12.9314   38.4612    9.8742 N.am    1  UNL1       -0.2754
     17 O          14.0912   36.8579    8.6235 O.2     1  UNL1       -0.2707
     18 H          12.4030   38.5902   10.6948 H       1  UNL1        0.1554
     19 C          13.7908   36.3377   10.9210 C.3     1  UNL1        0.2897
     20 O          14.8776   36.7759   11.7256 O.3     1  UNL1       -0.4656
     21 C          15.9400   37.5267   11.2157 C.ar    1  UNL1        0.1393
     22 C          16.9226   36.8813   10.4567 C.ar    1  UNL1        0.0369
     23 C          18.0002   37.6040    9.9354 C.ar    1  UNL1        0.0031
     24 C          18.1002   38.9781   10.1711 C.ar    1  UNL1        0.0002
     25 C          17.1227   39.6304   10.9280 C.ar    1  UNL1        0.0031
     26 C          16.0452   38.9082   11.4491 C.ar    1  UNL1        0.0369
     27 C          10.6761   39.0760    7.8741 C.1     1  UNL1        0.1019
     28 N           9.6928   38.4748    7.7689 N.1     1  UNL1       -0.1908
@<TRIPOS>BOND
     1     1    16    1
     2     1     6   ar
     3    19    15    1
     4    19    20    1
     5    21    20    1
     6    22    23   ar
     7    24    25   ar
     8    26    21   ar
     9     2     6   ar
    10     2     7    1
    11     3     5   ar
    12     4     3    1
    13     5    27    1
    14     7    13   am
    15     8    13    1
    16     8     9    1
    17     9    10    1
    18    10    11    1
    19    11    12    1
    20    12    13    1
    21    16    15   am
    22    15    17    2
    23    21    22   ar
    24    23    24   ar
    25    25    26   ar
    26     2     3   ar
    27     5     1   ar
    28     7    14    2
    29    27    28    3
    30    16    18    1
@<TRIPOS>MOLECULE
MolPort-001-980-337 871460 MCULE-2877066735 PubChem-1131055 ZINC000000871460
 28 30 0 0 0
SMALL
GASTEIGER

@<TRIPOS>ATOM
      1 C          13.2121   42.2021    7.4940 C.ar    1  UNL1        0.0903
      2 C          15.4179   41.4153    8.3958 C.ar    1  UNL1        0.0809
      3 C          15.5252   42.5231    7.5464 C.ar    1  UNL1       -0.0001
      4 C          16.8276   43.1567    7.1763 C.3     1  UNL1        0.0325
      5 C          14.2907   42.9537    7.0244 C.ar    1  UNL1        0.0847
      6 S          13.7882   40.9923    8.5019 S.2     1  UNL1       -0.0673
      7 C          16.5224   40.7569    9.1321 C.2     1  UNL1        0.2548
      8 C          17.2587   39.2271   10.9707 C.3     1  UNL1        0.0937
      9 C          17.7983   37.8078   10.7804 C.3     1  UNL1        0.0216
     10 C          16.7101   36.7832   10.4206 C.3     1  UNL1        0.0035
     11 C          15.2988   37.3685   10.4352 C.3     1  UNL1        0.0216
     12 C          15.2420   38.6198    9.5616 C.3     1  UNL1        0.0937
     13 N          16.3152   39.5606    9.9029 N.am    1  UNL1       -0.2757
     14 O          17.6728   41.2724    9.0949 O.2     1  UNL1       -0.2694
     15 C          11.1129   41.3928    6.3096 C.2     1  UNL1        0.2710
     16 N          11.8352   42.3253    7.1183 N.am    1  UNL1       -0.2754
     17 O          11.7190   40.5374    5.6115 O.2     1  UNL1       -0.2707
     18 H          11.3466   43.1159    7.4431 H       1  UNL1        0.1554
     19 C           9.6341   41.5032    6.2112 C.3     1  UNL1        0.2897
     20 O           9.0292   40.7203    7.2319 O.3     1  UNL1       -0.4656
     21 C           9.7694   40.0657    8.2199 C.ar    1  UNL1        0.1393
     22 C          10.2102   38.7591    7.9818 C.ar    1  UNL1        0.0369
     23 C          10.9500   38.0756    8.9517 C.ar    1  UNL1        0.0031
     24 C          11.2529   38.6969   10.1667 C.ar    1  UNL1        0.0002
     25 C          10.8167   40.0020   10.4122 C.ar    1  UNL1        0.0031
     26 C          10.0772   40.6855    9.4426 C.ar    1  UNL1        0.0369
     27 C          14.1812   43.9890    6.0259 C.1     1  UNL1        0.1019
     28 N          14.0963   44.8194    5.2244 N.1     1  UNL1       -0.1908
@<TRIPOS>BOND
     1     1    16    1
     2     1     6   ar
     3    19    15    1
     4    19    20    1
     5    21    20    1
     6    22    23   ar
     7    24    25   ar
     8    26    21   ar
     9     2     6   ar
    10     2     7    1
    11     3     5   ar
    12     4     3    1
    13     5    27    1
    14     7    13   am
    15     8    13    1
    16     8     9    1
    17     9    10    1
    18    10    11    1
    19    11    12    1
    20    12    13    1
    21    16    15   am
    22    15    17    2
    23    21    22   ar
    24    23    24   ar
    25    25    26   ar
    26     2     3   ar
    27     5     1   ar
    28     7    14    2
    29    27    28    3
    30    16    18    1
@<TRIPOS>MOLECULE
MolPort-001-980-337 871460 MCULE-2877066735 PubChem-1131055 ZINC000000871460
 28 30 0 0 0
SMALL
GASTEIGER

@<TRIPOS>ATOM
      1 C          11.8800   40.7769   10.1219 C.ar    1  UNL1        0.0903
      2 C          13.3552   41.6646    8.2960 C.ar    1  UNL1        0.0809
      3 C          13.9942   40.7384    9.1293 C.ar    1  UNL1       -0.0001
      4 C          15.4273   40.3416    8.9767 C.3     1  UNL1        0.0325
      5 C          13.1737   40.2541   10.1657 C.ar    1  UNL1        0.0847
      6 S          11.7726   41.8600    8.8464 S.2     1  UNL1       -0.0673
      7 C          13.9315   42.3194    7.0982 C.2     1  UNL1        0.2548
      8 C          15.3132   44.1628    6.1207 C.3     1  UNL1        0.0937
      9 C          16.7264   44.0070    5.5547 C.3     1  UNL1        0.0216
     10 C          17.8029   43.8315    6.6381 C.3     1  UNL1        0.0035
     11 C          17.2576   43.9591    8.0597 C.3     1  UNL1        0.0216
     12 C          16.0700   43.0185    8.2512 C.3     1  UNL1        0.0937
     13 N          15.0787   43.1826    7.1818 N.am    1  UNL1       -0.2757
     14 O          13.3877   42.1268    5.9767 O.2     1  UNL1       -0.2694
     15 C           9.8399   41.5197   11.4449 C.2     1  UNL1        0.2710
     16 N          10.8171   40.5510   11.0553 N.am    1  UNL1       -0.2754
     17 O          10.0205   42.7460   11.2216 O.2     1  UNL1       -0.2707
     18 H          10.7542   39.6564   11.4615 H       1  UNL1        0.1554
     19 C           8.6462   41.0841   12.2157 C.3     1  UNL1        0.2897
     20 O           7.5576   41.9557   11.9407 O.3     1  UNL1       -0.4656
     21 C           6.5458   41.6365   11.0313 C.ar    1  UNL1        0.1393
     22 C           6.7582   41.8780    9.6695 C.ar    1  UNL1        0.0369
     23 C           5.7641   41.5728    8.7347 C.ar    1  UNL1        0.0031
     24 C           4.5507   41.0235    9.1585 C.ar    1  UNL1        0.0002
     25 C           4.3307   40.7788   10.5170 C.ar    1  UNL1        0.0031
     26 C           5.3244   41.0837   11.4517 C.ar    1  UNL1        0.0369
     27 C          13.6646   39.3975   11.2173 C.1     1  UNL1        0.1019
     28 N          14.0565   38.7081   12.0602 N.1     1  UNL1       -0.1908
@<TRIPOS>BOND
     1     1    16    1
     2     1     6   ar
     3    19    15    1
     4    19    20    1
     5    21    20    1
     6    22    23   ar
     7    24    25   ar
     8    26    21   ar
     9     2     6   ar
    10     2     7    1
    11     3     5   ar
    12     4     3    1
    13     5    27    1
    14     7    13   am
    15     8    13    1
    16     8     9    1
    17     9    10    1
    18    10    11    1
    19    11    12    1
    20    12    13    1
    21    16    15   am
    22    15    17    2
    23    21    22   ar
    24    23    24   ar
    25    25    26   ar
    26     2     3   ar
    27     5     1   ar
    28     7    14    2
    29    27    28    3
    30    16    18    1
@<TRIPOS>MOLECULE
MolPort-001-980-337 871460 MCULE-2877066735 PubChem-1131055 ZINC000000871460
 28 30 0 0 0
SMALL
GASTEIGER

@<TRIPOS>ATOM
      1 C          12.6816   41.9488    6.9405 C.ar    1  UNL1        0.0903
      2 C          14.5464   41.0001    8.3263 C.ar    1  UNL1        0.0809
      3 C          14.8959   42.1747    7.6491 C.ar    1  UNL1       -0.0001
      4 C          16.2576   42.7884    7.7092 C.3     1  UNL1        0.0325
      5 C          13.8568   42.6975    6.8560 C.ar    1  UNL1        0.0847
      6 S          12.9448   40.6322    7.9449 S.2     1  UNL1       -0.0673
      7 C          15.3990   40.2364    9.2672 C.2     1  UNL1        0.2548
      8 C          15.6444   39.0561   11.4603 C.3     1  UNL1        0.0937
      9 C          15.7086   37.5388   11.6481 C.3     1  UNL1        0.0216
     10 C          14.3489   36.8431   11.4735 C.3     1  UNL1        0.0035
     11 C          13.1929   37.8186   11.2581 C.3     1  UNL1        0.0216
     12 C          13.5190   38.7713   10.1100 C.3     1  UNL1        0.0937
     13 N          14.8379   39.3901   10.2857 N.am    1  UNL1       -0.2757
     14 O          16.6524   40.3474    9.1822 O.2     1  UNL1       -0.2694
     15 C          10.1906   41.6024    6.5669 C.2     1  UNL1        0.2710
     16 N          11.4617   42.1579    6.2191 N.am    1  UNL1       -0.2754
     17 O          10.1054   40.6359    7.3699 O.2     1  UNL1       -0.2707
     18 H          11.5016   42.7304    5.4192 H       1  UNL1        0.1554
     19 C           8.9650   42.1037    5.8920 C.3     1  UNL1        0.2897
     20 O           7.8166   41.5317    6.5041 O.3     1  UNL1       -0.4656
     21 C           6.8764   42.2923    7.2041 C.ar    1  UNL1        0.1393
     22 C           6.2772   41.7461    8.3446 C.ar    1  UNL1        0.0369
     23 C           5.3300   42.4803    9.0650 C.ar    1  UNL1        0.0031
     24 C           4.9771   43.7667    8.6473 C.ar    1  UNL1        0.0002
     25 C           5.5713   44.3198    7.5093 C.ar    1  UNL1        0.0031
     26 C           6.5183   43.5859    6.7891 C.ar    1  UNL1        0.0369
     27 C          14.0376   43.8215    5.9703 C.1     1  UNL1        0.1019
     28 N          14.1802   44.7245    5.2607 N.1     1  UNL1       -0.1908
@<TRIPOS>BOND
     1     1    16    1
     2     1     6   ar
     3    19    15    1
     4    19    20    1
     5    21    20    1
     6    22    23   ar
     7    24    25   ar
     8    26    21   ar
     9     2     6   ar
    10     2     7    1
    11     3     5   ar
    12     4     3    1
    13     5    27    1
    14     7    13   am
    15     8    13    1
    16     8     9    1
    17     9    10    1
    18    10    11    1
    19    11    12    1
    20    12    13    1
    21    16    15   am
    22    15    17    2
    23    21    22   ar
    24    23    24   ar
    25    25    26   ar
    26     2     3   ar
    27     5     1   ar
    28     7    14    2
    29    27    28    3
    30    16    18    1
@<TRIPOS>MOLECULE
MolPort-001-980-337 871460 MCULE-2877066735 PubChem-1131055 ZINC000000871460
 28 30 0 0 0
SMALL
GASTEIGER

@<TRIPOS>ATOM
      1 C           5.2907   42.4935    9.9454 C.ar    1  UNL1        0.0903
      2 C           7.0574   41.9145    8.2596 C.ar    1  UNL1        0.0809
      3 C           6.2211   42.9620    7.8546 C.ar    1  UNL1       -0.0001
      4 C           6.3380   43.6473    6.5313 C.3     1  UNL1        0.0325
      5 C           5.2175   43.2750    8.7909 C.ar    1  UNL1        0.0847
      6 S           6.5506   41.3989    9.7839 S.2     1  UNL1       -0.0673
      7 C           8.2266   41.3822    7.5213 C.2     1  UNL1        0.2548
      8 C          10.5925   41.6730    6.7593 C.3     1  UNL1        0.0937
      9 C          11.8048   40.9332    7.3294 C.3     1  UNL1        0.0216
     10 C          12.2334   41.4397    8.7161 C.3     1  UNL1        0.0035
     11 C          11.4320   42.6500    9.1930 C.3     1  UNL1        0.0216
     12 C           9.9364   42.3529    9.1106 C.3     1  UNL1        0.0937
     13 N           9.5650   41.8356    7.7886 N.am    1  UNL1       -0.2757
     14 O           8.0383   40.5198    6.6206 O.2     1  UNL1       -0.2694
     15 C           3.0559   41.9950   11.0505 C.2     1  UNL1        0.2710
     16 N           4.3929   42.5022   11.0617 N.am    1  UNL1       -0.2754
     17 O           2.4581   41.7721    9.9645 O.2     1  UNL1       -0.2707
     18 H           4.7231   42.8887   11.9048 H       1  UNL1        0.1554
     19 C           2.3270   41.8285   12.3349 C.3     1  UNL1        0.2897
     20 O           1.2317   42.7333   12.3816 O.3     1  UNL1       -0.4656
     21 C           0.4529   42.9176   13.5271 C.ar    1  UNL1        0.1393
     22 C           0.4506   44.1707   14.1500 C.ar    1  UNL1        0.0369
     23 C          -0.3154   44.3863   15.2998 C.ar    1  UNL1        0.0031
     24 C          -1.0840   43.3477   15.8329 C.ar    1  UNL1        0.0002
     25 C          -1.0876   42.0931   15.2165 C.ar    1  UNL1        0.0031
     26 C          -0.3220   41.8774   14.0669 C.ar    1  UNL1        0.0369
     27 C           4.1663   44.2257    8.5233 C.1     1  UNL1        0.1019
     28 N           3.3248   44.9907    8.3088 N.1     1  UNL1       -0.1908
@<TRIPOS>BOND
     1     1    16    1
     2     1     6   ar
     3    19    15    1
     4    19    20    1
     5    21    20    1
     6    22    23   ar
     7    24    25   ar
     8    26    21   ar
     9     2     6   ar
    10     2     7    1
    11     3     5   ar
    12     4     3    1
    13     5    27    1
    14     7    13   am
    15     8    13    1
    16     8     9    1
    17     9    10    1
    18    10    11    1
    19    11    12    1
    20    12    13    1
    21    16    15   am
    22    15    17    2
    23    21    22   ar
    24    23    24   ar
    25    25    26   ar
    26     2     3   ar
    27     5     1   ar
    28     7    14    2
    29    27    28    3
    30    16    18    1
@<TRIPOS>MOLECULE
MolPort-001-980-337 871460 MCULE-2877066735 PubChem-1131055 ZINC000000871460
 28 30 0 0 0
SMALL
GASTEIGER

@<TRIPOS>ATOM
      1 C           9.4641   40.7482    7.9344 C.ar    1  UNL1        0.0903
      2 C           7.1131   41.6120    8.0917 C.ar    1  UNL1        0.0809
      3 C           7.2549   40.5374    7.2054 C.ar    1  UNL1       -0.0001
      4 C           6.1277   39.9790    6.3978 C.3     1  UNL1        0.0325
      5 C           8.5768   40.0643    7.1016 C.ar    1  UNL1        0.0847
      6 S           8.6290   41.9527    8.7489 S.2     1  UNL1       -0.0673
      7 C           5.8507   42.2997    8.4509 C.2     1  UNL1        0.2548
      8 C           3.4946   42.1561    9.2822 C.3     1  UNL1        0.0937
      9 C           3.0185   42.5769   10.6743 C.3     1  UNL1        0.0216
     10 C           3.4252   41.5925   11.7829 C.3     1  UNL1        0.0035
     11 C           4.1247   40.3410   11.2546 C.3     1  UNL1        0.0216
     12 C           5.2962   40.7353   10.3578 C.3     1  UNL1        0.0937
     13 N           4.8853   41.7038    9.3348 N.am    1  UNL1       -0.2757
     14 O           5.6097   43.4325    7.9515 O.2     1  UNL1       -0.2694
     15 C          11.8468   41.1295    7.1333 C.2     1  UNL1        0.2710
     16 N          10.8824   40.5707    8.0293 N.am    1  UNL1       -0.2754
     17 O          11.5004   41.5775    6.0082 O.2     1  UNL1       -0.2707
     18 H          11.2207   40.0193    8.7715 H       1  UNL1        0.1554
     19 C          13.2885   41.0851    7.4913 C.3     1  UNL1        0.2897
     20 O          13.9255   42.2769    7.0504 O.3     1  UNL1       -0.4656
     21 C          15.2345   42.6102    7.4084 C.ar    1  UNL1        0.1393
     22 C          15.9217   41.7860    8.3065 C.ar    1  UNL1        0.0369
     23 C          17.2314   42.0941    8.6873 C.ar    1  UNL1        0.0031
     24 C          17.8610   43.2301    8.1707 C.ar    1  UNL1        0.0002
     25 C          17.1816   44.0584    7.2728 C.ar    1  UNL1        0.0031
     26 C          15.8723   43.7505    6.8918 C.ar    1  UNL1        0.0369
     27 C           8.9749   39.0563    6.1496 C.1     1  UNL1        0.1019
     28 N           9.2939   38.2495    5.3837 N.1     1  UNL1       -0.1908
@<TRIPOS>BOND
     1     1    16    1
     2     1     6   ar
     3    19    15    1
     4    19    20    1
     5    21    20    1
     6    22    23   ar
     7    24    25   ar
     8    26    21   ar
     9     2     6   ar
    10     2     7    1
    11     3     5   ar
    12     4     3    1
    13     5    27    1
    14     7    13   am
    15     8    13    1
    16     8     9    1
    17     9    10    1
    18    10    11    1
    19    11    12    1
    20    12    13    1
    21    16    15   am
    22    15    17    2
    23    21    22   ar
    24    23    24   ar
    25    25    26   ar
    26     2     3   ar
    27     5     1   ar
    28     7    14    2
    29    27    28    3
    30    16    18    1
@<TRIPOS>MOLECULE
MolPort-001-980-337 871460 MCULE-2877066735 PubChem-1131055 ZINC000000871460
 28 30 0 0 0
SMALL
GASTEIGER

@<TRIPOS>ATOM
      1 C          12.6668   41.8148    7.1434 C.ar    1  UNL1        0.0903
      2 C          14.6403   40.9301    8.4165 C.ar    1  UNL1        0.0809
      3 C          14.9171   42.1012    7.7008 C.ar    1  UNL1       -0.0001
      4 C          16.2652   42.7460    7.6619 C.3     1  UNL1        0.0325
      5 C          13.8162   42.5880    6.9706 C.ar    1  UNL1        0.0847
      6 S          13.0261   40.5206    8.1472 S.2     1  UNL1       -0.0673
      7 C          15.5704   40.2007    9.3101 C.2     1  UNL1        0.2548
      8 C          15.9895   39.0696   11.5027 C.3     1  UNL1        0.0937
      9 C          16.0954   37.5577   11.7144 C.3     1  UNL1        0.0216
     10 C          14.7403   36.8348   11.6482 C.3     1  UNL1        0.0035
     11 C          13.5538   37.7853   11.4954 C.3     1  UNL1        0.0216
     12 C          13.7815   38.7201   10.3095 C.3     1  UNL1        0.0937
     13 N          15.0974   39.3654   10.3811 N.am    1  UNL1       -0.2757
     14 O          16.8126   40.3320    9.1358 O.2     1  UNL1       -0.2694
     15 C          10.2122   41.2452    6.8049 C.2     1  UNL1        0.2710
     16 N          11.3977   41.9851    6.5012 N.am    1  UNL1       -0.2754
     17 O          10.2708   40.1705    7.4590 O.2     1  UNL1       -0.2707
     18 H          11.3366   42.6668    5.7936 H       1  UNL1        0.1554
     19 C           8.9082   41.6954    6.2519 C.3     1  UNL1        0.2897
     20 O           8.3462   42.6853    7.1034 O.3     1  UNL1       -0.4656
     21 C           8.2095   42.5057    8.4823 C.ar    1  UNL1        0.1393
     22 C           9.0999   43.1587    9.3419 C.ar    1  UNL1        0.0369
     23 C           8.9917   42.9968   10.7265 C.ar    1  UNL1        0.0031
     24 C           7.9905   42.1794   11.2589 C.ar    1  UNL1        0.0002
     25 C           7.0969   41.5238   10.4072 C.ar    1  UNL1        0.0031
     26 C           7.2048   41.6857    9.0229 C.ar    1  UNL1        0.0369
     27 C          13.9123   43.7015    6.0587 C.1     1  UNL1        0.1019
     28 N          13.9869   44.5939    5.3257 N.1     1  UNL1       -0.1908
@<TRIPOS>BOND
     1     1    16    1
     2     1     6   ar
     3    19    15    1
     4    19    20    1
     5    21    20    1
     6    22    23   ar
     7    24    25   ar
     8    26    21   ar
     9     2     6   ar
    10     2     7    1
    11     3     5   ar
    12     4     3    1
    13     5    27    1
    14     7    13   am
    15     8    13    1
    16     8     9    1
    17     9    10    1
    18    10    11    1
    19    11    12    1
    20    12    13    1
    21    16    15   am
    22    15    17    2
    23    21    22   ar
    24    23    24   ar
    25    25    26   ar
    26     2     3   ar
    27     5     1   ar
    28     7    14    2
    29    27    28    3
    30    16    18    1
@<TRIPOS>MOLECULE
MolPort-001-980-337 871460 MCULE-2877066735 PubChem-1131055 ZINC000000871460
 28 30 0 0 0
SMALL
GASTEIGER

@<TRIPOS>ATOM
      1 C          12.4091   39.7296    9.7226 C.ar    1  UNL1        0.0903
      2 C          13.0610   41.5251    8.0950 C.ar    1  UNL1        0.0809
      3 C          12.0584   41.9195    8.9893 C.ar    1  UNL1       -0.0001
      4 C          11.4067   43.2644    8.9583 C.3     1  UNL1        0.0325
      5 C          11.6780   40.9069    9.8904 C.ar    1  UNL1        0.0847
      6 S          13.4754   39.9275    8.4438 S.2     1  UNL1       -0.0673
      7 C          13.7029   42.3692    7.0601 C.2     1  UNL1        0.2548
      8 C          15.3519   44.1584    6.4751 C.3     1  UNL1        0.0937
      9 C          16.6969   43.9319    5.7812 C.3     1  UNL1        0.0216
     10 C          17.7613   43.3097    6.6995 C.3     1  UNL1        0.0035
     11 C          17.2937   43.1471    8.1450 C.3     1  UNL1        0.0216
     12 C          15.9672   42.3916    8.1842 C.3     1  UNL1        0.0937
     13 N          14.9852   42.9857    7.2699 N.am    1  UNL1       -0.2757
     14 O          13.0973   42.5658    5.9714 O.2     1  UNL1       -0.2694
     15 C          11.5028   37.3634    9.9335 C.2     1  UNL1        0.2710
     16 N          12.2367   38.4902   10.4201 N.am    1  UNL1       -0.2754
     17 O          10.6935   37.4837    8.9760 O.2     1  UNL1       -0.2707
     18 H          12.6577   38.4075   11.3062 H       1  UNL1        0.1554
     19 C          11.6188   36.0580   10.6344 C.3     1  UNL1        0.2897
     20 O          12.8638   35.4530   10.3112 O.3     1  UNL1       -0.4656
     21 C          14.0698   36.1588   10.3151 C.ar    1  UNL1        0.1393
     22 C          14.4671   36.8144   11.4857 C.ar    1  UNL1        0.0369
     23 C          15.6666   37.5320   11.5209 C.ar    1  UNL1        0.0031
     24 C          16.4760   37.5973   10.3832 C.ar    1  UNL1        0.0002
     25 C          16.0866   36.9449    9.2099 C.ar    1  UNL1        0.0031
     26 C          14.8875   36.2273    9.1746 C.ar    1  UNL1        0.0369
     27 C          10.5734   41.0492   10.8070 C.1     1  UNL1        0.1019
     28 N           9.6859   41.1655   11.5406 N.1     1  UNL1       -0.1908
@<TRIPOS>BOND
     1     1    16    1
     2     1     6   ar
     3    19    15    1
     4    19    20    1
     5    21    20    1
     6    22    23   ar
     7    24    25   ar
     8    26    21   ar
     9     2     6   ar
    10     2     7    1
    11     3     5   ar
    12     4     3    1
    13     5    27    1
    14     7    13   am
    15     8    13    1
    16     8     9    1
    17     9    10    1
    18    10    11    1
    19    11    12    1
    20    12    13    1
    21    16    15   am
    22    15    17    2
    23    21    22   ar
    24    23    24   ar
    25    25    26   ar
    26     2     3   ar
    27     5     1   ar
    28     7    14    2
    29    27    28    3
    30    16    18    1
@<TRIPOS>MOLECULE
MolPort-001-980-337 871460 MCULE-2877066735 PubChem-1131055 ZINC000000871460
 28 30 0 0 0
SMALL
GASTEIGER

@<TRIPOS>ATOM
      1 C           8.7937   41.9891    7.6397 C.ar    1  UNL1        0.0903
      2 C          11.2294   41.5317    8.0348 C.ar    1  UNL1        0.0809
      3 C          10.6773   40.7631    7.0029 C.ar    1  UNL1       -0.0001
      4 C          11.4476   39.7390    6.2333 C.3     1  UNL1        0.0325
      5 C           9.3063   41.0047    6.7930 C.ar    1  UNL1        0.0847
      6 S          10.0119   42.5148    8.6650 S.2     1  UNL1       -0.0673
      7 C          12.6464   41.5406    8.4682 C.2     1  UNL1        0.2548
      8 C          15.0730   41.5788    7.8576 C.3     1  UNL1        0.0937
      9 C          16.0037   42.7853    7.9983 C.3     1  UNL1        0.0216
     10 C          15.7625   43.8705    6.9363 C.3     1  UNL1        0.0035
     11 C          14.7199   43.4745    5.8919 C.3     1  UNL1        0.0216
     12 C          13.4323   43.0279    6.5810 C.3     1  UNL1        0.0937
     13 N          13.6993   42.0209    7.6144 N.am    1  UNL1       -0.2757
     14 O          12.9371   41.0969    9.6124 O.2     1  UNL1       -0.2694
     15 C           7.0196   43.7535    8.0911 C.2     1  UNL1        0.2710
     16 N           7.4346   42.4310    7.7395 N.am    1  UNL1       -0.2754
     17 O           7.8199   44.5585    8.6368 O.2     1  UNL1       -0.2707
     18 H           6.7293   41.7706    7.5507 H       1  UNL1        0.1554
     19 C           5.5984   44.1467    7.9058 C.3     1  UNL1        0.2897
     20 O           4.9110   44.0464    9.1459 O.3     1  UNL1       -0.4656
     21 C           4.5224   42.8225    9.6970 C.ar    1  UNL1        0.1393
     22 C           3.3256   42.2368    9.2696 C.ar    1  UNL1        0.0369
     23 C           2.9073   41.0144    9.8042 C.ar    1  UNL1        0.0031
     24 C           3.6856   40.3708   10.7707 C.ar    1  UNL1        0.0002
     25 C           4.8826   40.9490   11.2027 C.ar    1  UNL1        0.0031
     26 C           5.3011   42.1711   10.6683 C.ar    1  UNL1        0.0369
     27 C           8.5065   40.2306    5.8755 C.1     1  UNL1        0.1019
     28 N           7.8625   39.6101    5.1411 N.1     1  UNL1       -0.1908
@<TRIPOS>BOND
     1     1    16    1
     2     1     6   ar
     3    19    15    1
     4    19    20    1
     5    21    20    1
     6    22    23   ar
     7    24    25   ar
     8    26    21   ar
     9     2     6   ar
    10     2     7    1
    11     3     5   ar
    12     4     3    1
    13     5    27    1
    14     7    13   am
    15     8    13    1
    16     8     9    1
    17     9    10    1
    18    10    11    1
    19    11    12    1
    20    12    13    1
    21    16    15   am
    22    15    17    2
    23    21    22   ar
    24    23    24   ar
    25    25    26   ar
    26     2     3   ar
    27     5     1   ar
    28     7    14    2
    29    27    28    3
    30    16    18    1
@<TRIPOS>MOLECULE
MolPort-001-980-337 871460 MCULE-2877066735 PubChem-1131055 ZINC000000871460
 28 30 0 0 0
SMALL
GASTEIGER

@<TRIPOS>ATOM
      1 C           8.4591   42.1727    7.9035 C.ar    1  UNL1        0.0903
      2 C          10.7835   41.2484    7.7012 C.ar    1  UNL1        0.0809
      3 C           9.8298   40.5247    6.9752 C.ar    1  UNL1       -0.0001
      4 C          10.1506   39.2964    6.1859 C.3     1  UNL1        0.0325
      5 C           8.5222   41.0306    7.1032 C.ar    1  UNL1        0.0847
      6 S           9.9944   42.5188    8.4819 S.2     1  UNL1       -0.0673
      7 C          12.2432   40.9966    7.7376 C.2     1  UNL1        0.2548
      8 C          14.3693   40.9066    9.0546 C.3     1  UNL1        0.0937
      9 C          15.0904   39.6283    9.4878 C.3     1  UNL1        0.0216
     10 C          14.3922   38.8946   10.6443 C.3     1  UNL1        0.0035
     11 C          13.1839   39.6484   11.1979 C.3     1  UNL1        0.0216
     12 C          12.2261   40.0069   10.0639 C.3     1  UNL1        0.0937
     13 N          12.9281   40.6710    8.9596 N.am    1  UNL1       -0.2757
     14 O          12.9050   41.0885    6.6679 O.2     1  UNL1       -0.2694
     15 C           6.4750   43.6879    7.4217 C.2     1  UNL1        0.2710
     16 N           7.2876   42.8987    8.2945 N.am    1  UNL1       -0.2754
     17 O           6.9016   44.0507    6.2936 O.2     1  UNL1       -0.2707
     18 H           7.0204   42.8503    9.2408 H       1  UNL1        0.1554
     19 C           5.1524   44.1733    7.8949 C.3     1  UNL1        0.2897
     20 O           5.0185   43.9104    9.2854 O.3     1  UNL1       -0.4656
     21 C           4.5204   42.7026    9.7810 C.ar    1  UNL1        0.1393
     22 C           5.2265   42.0432   10.7933 C.ar    1  UNL1        0.0369
     23 C           4.7563   40.8312   11.3079 C.ar    1  UNL1        0.0031
     24 C           3.5753   40.2719   10.8116 C.ar    1  UNL1        0.0002
     25 C           2.8637   40.9244    9.8008 C.ar    1  UNL1        0.0031
     26 C           3.3336   42.1362    9.2862 C.ar    1  UNL1        0.0369
     27 C           7.3676   40.3640    6.5527 C.1     1  UNL1        0.1019
     28 N           6.4406   39.8315    6.1094 N.1     1  UNL1       -0.1908
@<TRIPOS>BOND
     1     1    16    1
     2     1     6   ar
     3    19    15    1
     4    19    20    1
     5    21    20    1
     6    22    23   ar
     7    24    25   ar
     8    26    21   ar
     9     2     6   ar
    10     2     7    1
    11     3     5   ar
    12     4     3    1
    13     5    27    1
    14     7    13   am
    15     8    13    1
    16     8     9    1
    17     9    10    1
    18    10    11    1
    19    11    12    1
    20    12    13    1
    21    16    15   am
    22    15    17    2
    23    21    22   ar
    24    23    24   ar
    25    25    26   ar
    26     2     3   ar
    27     5     1   ar
    28     7    14    2
    29    27    28    3
    30    16    18    1
