@<TRIPOS>MOLECULE
MolPort-001-809-197 CSSS00106531930 MCULE-2952134515 PubChem-2823008 ZINC000001040089 ZINC01040089
 30 32 0 0 0
SMALL
GASTEIGER

@<TRIPOS>ATOM
      1 C           7.9799   41.3100    9.6958 C.2     1  UNL1        0.3082
      2 O           8.2761   41.2063   10.9166 O.2     1  UNL1       -0.2521
      3 N           6.6169   41.4765    9.2841 N.am    1  UNL1       -0.2656
      4 N           9.0000   41.2636    8.6900 N.am    1  UNL1       -0.2680
      5 H           6.4604   41.5499    8.3149 H       1  UNL1        0.1565
      6 H           8.7012   41.3508    7.7560 H       1  UNL1        0.1564
      7 C           3.1803   41.6614   11.7898 C.ar    1  UNL1        0.1418
      8 C           3.3492   42.5917   10.7554 C.ar    1  UNL1        0.0750
      9 C           4.4697   42.5528    9.9173 C.ar    1  UNL1        0.1551
     10 C           5.4529   41.5485   10.1234 C.ar    1  UNL1        0.0861
     11 C           5.2712   40.6231   11.1631 C.ar    1  UNL1        0.0209
     12 C           4.1480   40.6780   11.9876 C.ar    1  UNL1        0.0384
     13 C           1.2058   42.8214   12.7247 C.3     1  UNL1        0.2525
     14 O           2.0647   41.6931   12.6309 O.3     1  UNL1       -0.4713
     15 C           5.7122   44.2338    8.5291 C.3     1  UNL1        0.2525
     16 O           4.5386   43.5323    8.9133 O.3     1  UNL1       -0.4701
     17 C          10.4098   41.1037    8.8998 C.ar    1  UNL1        0.0548
     18 C          10.9244   40.4861   10.0448 C.ar    1  UNL1        0.0180
     19 C          12.3024   40.3541   10.2140 C.ar    1  UNL1        0.0413
     20 C          13.1945   40.8336    9.2407 C.ar    1  UNL1        0.1725
     21 C          12.6773   41.4478    8.0738 C.ar    1  UNL1        0.1733
     22 C          11.2917   41.5792    7.9268 C.ar    1  UNL1        0.0547
     23 C          15.1656   39.6823   10.2090 C.3     1  UNL1        0.2526
     24 O          14.5760   40.7168    9.4323 O.3     1  UNL1       -0.4684
     25 O          13.4816   41.9529    7.0399 O.3     1  UNL1       -0.4761
     26 C          14.1439   43.2117    7.0618 C.3     1  UNL1        0.1660
     27 C          15.6444   43.0083    7.1684 C.3     1  UNL1        0.0435
     28 C          16.2605   44.0148    6.2266 C.3     1  UNL1        0.0038
     29 C          15.2486   44.1833    5.1181 C.3     1  UNL1        0.0038
     30 C          13.8941   43.9441    5.7550 C.3     1  UNL1        0.0435
@<TRIPOS>BOND
     1    13    14    1
     2     7    14    1
     3     8     9   ar
     4     9    16    1
     5    15    16    1
     6    10     3    1
     7    10    11   ar
     8     1     4   am
     9    18    19   ar
    10    20    24    1
    11    20    21   ar
    12    23    24    1
    13    21    25    1
    14    26    25    1
    15    26    27    1
    16    27    28    1
    17    28    29    1
    18    29    30    1
    19    30    26    1
    20    22    17   ar
    21    12     7   ar
    22     3     1   am
    23     4    17    1
    24     7     8   ar
    25     9    10   ar
    26     1     2    2
    27    17    18   ar
    28    19    20   ar
    29    21    22   ar
    30    11    12   ar
    31     3     5    1
    32     4     6    1
@<TRIPOS>MOLECULE
MolPort-001-809-197 CSSS00106531930 MCULE-2952134515 PubChem-2823008 ZINC000001040089 ZINC01040089
 30 32 0 0 0
SMALL
GASTEIGER

@<TRIPOS>ATOM
      1 C           9.3870   41.2898    9.8929 C.2     1  UNL1        0.3082
      2 O           9.7165   42.1803    9.0640 O.2     1  UNL1       -0.2521
      3 N           8.0262   41.1574   10.3239 N.am    1  UNL1       -0.2656
      4 N          10.3662   40.3882   10.4245 N.am    1  UNL1       -0.2680
      5 H           7.8425   40.4404   10.9731 H       1  UNL1        0.1565
      6 H          10.0425   39.7163   11.0672 H       1  UNL1        0.1564
      7 C           4.7093   43.5269    9.0965 C.ar    1  UNL1        0.1418
      8 C           4.5363   42.5098   10.0449 C.ar    1  UNL1        0.0750
      9 C           5.6102   41.7166   10.4656 C.ar    1  UNL1        0.1551
     10 C           6.8995   41.9509    9.9172 C.ar    1  UNL1        0.0861
     11 C           7.0586   42.9728    8.9682 C.ar    1  UNL1        0.0209
     12 C           5.9764   43.7527    8.5617 C.ar    1  UNL1        0.0384
     13 C           3.7418   45.2143    7.5685 C.3     1  UNL1        0.2525
     14 O           3.6426   44.3233    8.6710 O.3     1  UNL1       -0.4713
     15 C           4.0491   40.1441   11.6432 C.3     1  UNL1        0.2525
     16 O           5.3250   40.7265   11.4197 O.3     1  UNL1       -0.4701
     17 C          11.7674   40.3610   10.1196 C.ar    1  UNL1        0.0548
     18 C          12.7008   39.7611   10.9719 C.ar    1  UNL1        0.0180
     19 C          14.0559   39.7598   10.6419 C.ar    1  UNL1        0.0413
     20 C          14.5056   40.3550    9.4518 C.ar    1  UNL1        0.1725
     21 C          13.5624   40.9518    8.5797 C.ar    1  UNL1        0.1733
     22 C          12.2081   40.9512    8.9331 C.ar    1  UNL1        0.0547
     23 C          16.8773   39.9679   10.0628 C.3     1  UNL1        0.2526
     24 O          15.8706   40.3683    9.1425 O.3     1  UNL1       -0.4684
     25 O          13.9069   41.5657    7.3650 O.3     1  UNL1       -0.4761
     26 C          14.2237   42.9436    7.2079 C.3     1  UNL1        0.1660
     27 C          15.7297   43.1311    7.1787 C.3     1  UNL1        0.0435
     28 C          15.9935   44.1474    6.0938 C.3     1  UNL1        0.0038
     29 C          14.8909   43.9357    5.0835 C.3     1  UNL1        0.0038
     30 C          13.6957   43.4412    5.8737 C.3     1  UNL1        0.0435
@<TRIPOS>BOND
     1    13    14    1
     2     7    14    1
     3     8     9   ar
     4     9    16    1
     5    15    16    1
     6    10     3    1
     7    10    11   ar
     8     1     4   am
     9    18    19   ar
    10    20    24    1
    11    20    21   ar
    12    23    24    1
    13    21    25    1
    14    26    25    1
    15    26    27    1
    16    27    28    1
    17    28    29    1
    18    29    30    1
    19    30    26    1
    20    22    17   ar
    21    12     7   ar
    22     3     1   am
    23     4    17    1
    24     7     8   ar
    25     9    10   ar
    26     1     2    2
    27    17    18   ar
    28    19    20   ar
    29    21    22   ar
    30    11    12   ar
    31     3     5    1
    32     4     6    1
@<TRIPOS>MOLECULE
MolPort-001-809-197 CSSS00106531930 MCULE-2952134515 PubChem-2823008 ZINC000001040089 ZINC01040089
 30 32 0 0 0
SMALL
GASTEIGER

@<TRIPOS>ATOM
      1 C          11.9458   41.4502    9.1694 C.2     1  UNL1        0.3082
      2 O          11.8830   42.6924    9.3736 O.2     1  UNL1       -0.2521
      3 N          13.1155   40.8618    8.5857 N.am    1  UNL1       -0.2656
      4 N          10.8482   40.5963    9.5163 N.am    1  UNL1       -0.2680
      5 H          13.0936   39.8862    8.4550 H       1  UNL1        0.1565
      6 H          10.9620   39.6362    9.3309 H       1  UNL1        0.1564
      7 C          16.6538   42.8672    7.3282 C.ar    1  UNL1        0.1418
      8 C          16.7109   41.9133    8.3533 C.ar    1  UNL1        0.0750
      9 C          15.5624   41.2396    8.7853 C.ar    1  UNL1        0.1551
     10 C          14.3162   41.5322    8.1694 C.ar    1  UNL1        0.0861
     11 C          14.2734   42.4898    7.1440 C.ar    1  UNL1        0.0209
     12 C          15.4286   43.1505    6.7272 C.ar    1  UNL1        0.0384
     13 C          17.9141   44.0832    5.5814 C.3     1  UNL1        0.2525
     14 O          17.7955   43.5442    6.8909 O.3     1  UNL1       -0.4713
     15 C          14.8099   39.2807   10.1611 C.3     1  UNL1        0.2525
     16 O          15.7331   40.3042    9.8186 O.3     1  UNL1       -0.4701
     17 C           9.6015   40.9922   10.1047 C.ar    1  UNL1        0.0548
     18 C           9.1239   40.4181   11.2878 C.ar    1  UNL1        0.0180
     19 C           7.9039   40.8271   11.8258 C.ar    1  UNL1        0.0413
     20 C           7.1377   41.8207   11.1943 C.ar    1  UNL1        0.1725
     21 C           7.6239   42.4138   10.0034 C.ar    1  UNL1        0.1733
     22 C           8.8459   41.9831    9.4742 C.ar    1  UNL1        0.0547
     23 C           4.7213   41.4300   11.5898 C.3     1  UNL1        0.2526
     24 O           5.9038   42.2064   11.7306 O.3     1  UNL1       -0.4684
     25 O           6.9399   43.4181    9.3001 O.3     1  UNL1       -0.4761
     26 C           5.8073   43.2039    8.4664 C.3     1  UNL1        0.1660
     27 C           4.5387   43.5979    9.2010 C.3     1  UNL1        0.0435
     28 C           3.6880   44.3229    8.1860 C.3     1  UNL1        0.0038
     29 C           4.6730   44.9894    7.2550 C.3     1  UNL1        0.0038
     30 C           5.8977   44.0965    7.2411 C.3     1  UNL1        0.0435
@<TRIPOS>BOND
     1    13    14    1
     2     7    14    1
     3     8     9   ar
     4     9    16    1
     5    15    16    1
     6    10     3    1
     7    10    11   ar
     8     1     4   am
     9    18    19   ar
    10    20    24    1
    11    20    21   ar
    12    23    24    1
    13    21    25    1
    14    26    25    1
    15    26    27    1
    16    27    28    1
    17    28    29    1
    18    29    30    1
    19    30    26    1
    20    22    17   ar
    21    12     7   ar
    22     3     1   am
    23     4    17    1
    24     7     8   ar
    25     9    10   ar
    26     1     2    2
    27    17    18   ar
    28    19    20   ar
    29    21    22   ar
    30    11    12   ar
    31     3     5    1
    32     4     6    1
@<TRIPOS>MOLECULE
MolPort-001-809-197 CSSS00106531930 MCULE-2952134515 PubChem-2823008 ZINC000001040089 ZINC01040089
 30 32 0 0 0
SMALL
GASTEIGER

@<TRIPOS>ATOM
      1 C          11.0837   41.9790    6.8503 C.2     1  UNL1        0.3082
      2 O          11.1570   41.8834    8.1050 O.2     1  UNL1       -0.2521
      3 N           9.8283   41.8242    6.1757 N.am    1  UNL1       -0.2656
      4 N          12.2550   42.2445    6.0682 N.am    1  UNL1       -0.2680
      5 H           9.8469   41.9110    5.1952 H       1  UNL1        0.1565
      6 H          12.1286   42.3072    5.0938 H       1  UNL1        0.1564
      7 C           6.0351   41.0581    7.9499 C.ar    1  UNL1        0.1418
      8 C           6.4450   40.3338    6.8224 C.ar    1  UNL1        0.0750
      9 C           7.6870   40.5660    6.2201 C.ar    1  UNL1        0.1551
     10 C           8.5459   41.5570    6.7662 C.ar    1  UNL1        0.0861
     11 C           8.1229   42.2750    7.8956 C.ar    1  UNL1        0.0209
     12 C           6.8817   42.0292    8.4818 C.ar    1  UNL1        0.0384
     13 C           4.5816   41.0094    9.9507 C.3     1  UNL1        0.2525
     14 O           4.7969   40.8325    8.5572 O.3     1  UNL1       -0.4713
     15 C           9.0252   38.8062    5.0332 C.3     1  UNL1        0.2525
     16 O           7.9970   39.7839    5.0957 O.3     1  UNL1       -0.4701
     17 C          13.5918   42.4287    6.5542 C.ar    1  UNL1        0.0548
     18 C          14.4065   43.4746    6.1073 C.ar    1  UNL1        0.0180
     19 C          15.7031   43.6168    6.6010 C.ar    1  UNL1        0.0413
     20 C          16.2110   42.7185    7.5540 C.ar    1  UNL1        0.1725
     21 C          15.3850   41.6660    8.0189 C.ar    1  UNL1        0.1733
     22 C          14.0900   41.5345    7.5044 C.ar    1  UNL1        0.0547
     23 C          18.3155   44.0105    7.7783 C.3     1  UNL1        0.2526
     24 O          17.5218   42.8571    8.0247 O.3     1  UNL1       -0.4684
     25 O          15.7937   40.7211    8.9734 O.3     1  UNL1       -0.4761
     26 C          15.0618   39.5556    9.3336 C.3     1  UNL1        0.1660
     27 C          15.9839   38.5444    9.9902 C.3     1  UNL1        0.0435
     28 C          15.2036   37.9733   11.1497 C.3     1  UNL1        0.0038
     29 C          14.2993   39.0950   11.6026 C.3     1  UNL1        0.0038
     30 C          14.0031   39.9137   10.3619 C.3     1  UNL1        0.0435
@<TRIPOS>BOND
     1    13    14    1
     2     7    14    1
     3     8     9   ar
     4     9    16    1
     5    15    16    1
     6    10     3    1
     7    10    11   ar
     8     1     4   am
     9    18    19   ar
    10    20    24    1
    11    20    21   ar
    12    23    24    1
    13    21    25    1
    14    26    25    1
    15    26    27    1
    16    27    28    1
    17    28    29    1
    18    29    30    1
    19    30    26    1
    20    22    17   ar
    21    12     7   ar
    22     3     1   am
    23     4    17    1
    24     7     8   ar
    25     9    10   ar
    26     1     2    2
    27    17    18   ar
    28    19    20   ar
    29    21    22   ar
    30    11    12   ar
    31     3     5    1
    32     4     6    1
@<TRIPOS>MOLECULE
MolPort-001-809-197 CSSS00106531930 MCULE-2952134515 PubChem-2823008 ZINC000001040089 ZINC01040089
 30 32 0 0 0
SMALL
GASTEIGER

@<TRIPOS>ATOM
      1 C          10.6027   42.1493    7.0324 C.2     1  UNL1        0.3082
      2 O          10.7740   41.9203    8.2600 O.2     1  UNL1       -0.2521
      3 N           9.2925   42.0967    6.4531 N.am    1  UNL1       -0.2656
      4 N          11.7150   42.4677    6.1865 N.am    1  UNL1       -0.2680
      5 H           9.2346   42.2860    5.4887 H       1  UNL1        0.1565
      6 H          11.5123   42.6359    5.2378 H       1  UNL1        0.1564
      7 C           5.6234   41.1832    8.4091 C.ar    1  UNL1        0.1418
      8 C           6.2283   42.4337    8.5940 C.ar    1  UNL1        0.0750
      9 C           7.4344   42.7593    7.9625 C.ar    1  UNL1        0.1551
     10 C           8.0541   41.7995    7.1182 C.ar    1  UNL1        0.0861
     11 C           7.4374   40.5510    6.9419 C.ar    1  UNL1        0.0209
     12 C           6.2356   40.2452    7.5796 C.ar    1  UNL1        0.0384
     13 C           4.2915   40.7473   10.4473 C.3     1  UNL1        0.2525
     14 O           4.4195   40.8501    9.0357 O.3     1  UNL1       -0.4713
     15 C           8.4213   44.5003    9.4763 C.3     1  UNL1        0.2525
     16 O           7.9524   44.0394    8.2174 O.3     1  UNL1       -0.4701
     17 C          13.0920   42.5675    6.5752 C.ar    1  UNL1        0.0548
     18 C          13.9113   43.6158    6.1423 C.ar    1  UNL1        0.0180
     19 C          15.2471   43.6745    6.5387 C.ar    1  UNL1        0.0413
     20 C          15.7908   42.6886    7.3786 C.ar    1  UNL1        0.1725
     21 C          14.9614   41.6327    7.8298 C.ar    1  UNL1        0.1733
     22 C          13.6260   41.5862    7.4133 C.ar    1  UNL1        0.0547
     23 C          17.9395   43.9083    7.5875 C.3     1  UNL1        0.2526
     24 O          17.1389   42.7450    7.7508 O.3     1  UNL1       -0.4684
     25 O          15.4045   40.6036    8.6757 O.3     1  UNL1       -0.4761
     26 C          14.5894   39.5506    9.1762 C.3     1  UNL1        0.1660
     27 C          15.4580   38.3928    9.6336 C.3     1  UNL1        0.0435
     28 C          14.8463   37.9098   10.9266 C.3     1  UNL1        0.0038
     29 C          14.2330   39.1399   11.5524 C.3     1  UNL1        0.0038
     30 C          13.8244   40.0315   10.3968 C.3     1  UNL1        0.0435
@<TRIPOS>BOND
     1    13    14    1
     2     7    14    1
     3     8     9   ar
     4     9    16    1
     5    15    16    1
     6    10     3    1
     7    10    11   ar
     8     1     4   am
     9    18    19   ar
    10    20    24    1
    11    20    21   ar
    12    23    24    1
    13    21    25    1
    14    26    25    1
    15    26    27    1
    16    27    28    1
    17    28    29    1
    18    29    30    1
    19    30    26    1
    20    22    17   ar
    21    12     7   ar
    22     3     1   am
    23     4    17    1
    24     7     8   ar
    25     9    10   ar
    26     1     2    2
    27    17    18   ar
    28    19    20   ar
    29    21    22   ar
    30    11    12   ar
    31     3     5    1
    32     4     6    1
@<TRIPOS>MOLECULE
MolPort-001-809-197 CSSS00106531930 MCULE-2952134515 PubChem-2823008 ZINC000001040089 ZINC01040089
 30 32 0 0 0
SMALL
GASTEIGER

@<TRIPOS>ATOM
      1 C          10.8112   41.3393    9.2363 C.2     1  UNL1        0.3082
      2 O          11.0995   42.5028    8.8467 O.2     1  UNL1       -0.2521
      3 N          11.8403   40.3696    9.4726 N.am    1  UNL1       -0.2656
      4 N           9.4465   40.9584    9.4523 N.am    1  UNL1       -0.2680
      5 H          11.5412   39.4817    9.7748 H       1  UNL1        0.1565
      6 H           9.2903   40.0353    9.7567 H       1  UNL1        0.1564
      7 C          16.0351   40.9102    8.9893 C.ar    1  UNL1        0.1418
      8 C          15.5429   40.1099   10.0290 C.ar    1  UNL1        0.0750
      9 C          14.1684   39.9157   10.2098 C.ar    1  UNL1        0.1551
     10 C          13.2581   40.5448    9.3191 C.ar    1  UNL1        0.0861
     11 C          13.7647   41.3437    8.2821 C.ar    1  UNL1        0.0209
     12 C          15.1376   41.5251    8.1181 C.ar    1  UNL1        0.0384
     13 C          17.9302   42.2303    8.1036 C.3     1  UNL1        0.2525
     14 O          17.4056   41.1092    8.8018 O.3     1  UNL1       -0.4713
     15 C          13.8775   37.6780   11.3074 C.3     1  UNL1        0.2525
     16 O          13.7848   39.0950   11.2828 O.3     1  UNL1       -0.4701
     17 C           8.2842   41.7792    9.2719 C.ar    1  UNL1        0.0548
     18 C           8.3490   43.1763    9.3103 C.ar    1  UNL1        0.0180
     19 C           7.1948   43.9393    9.1352 C.ar    1  UNL1        0.0413
     20 C           5.9525   43.3218    8.9148 C.ar    1  UNL1        0.1725
     21 C           5.8846   41.9080    8.8621 C.ar    1  UNL1        0.1733
     22 C           7.0524   41.1597    9.0495 C.ar    1  UNL1        0.0547
     23 C           4.5223   44.8587    7.5955 C.3     1  UNL1        0.2526
     24 O           4.7971   44.0972    8.7640 O.3     1  UNL1       -0.4684
     25 O           4.6958   41.1948    8.6406 O.3     1  UNL1       -0.4761
     26 C           3.8269   40.7192    9.6615 C.3     1  UNL1        0.1660
     27 C           4.5574   40.6840   10.9917 C.3     1  UNL1        0.0435
     28 C           3.5712   41.1987   12.0126 C.3     1  UNL1        0.0038
     29 C           2.7040   42.1788   11.2587 C.3     1  UNL1        0.0038
     30 C           2.6609   41.6778    9.8288 C.3     1  UNL1        0.0435
@<TRIPOS>BOND
     1    13    14    1
     2     7    14    1
     3     8     9   ar
     4     9    16    1
     5    15    16    1
     6    10     3    1
     7    10    11   ar
     8     1     4   am
     9    18    19   ar
    10    20    24    1
    11    20    21   ar
    12    23    24    1
    13    21    25    1
    14    26    25    1
    15    26    27    1
    16    27    28    1
    17    28    29    1
    18    29    30    1
    19    30    26    1
    20    22    17   ar
    21    12     7   ar
    22     3     1   am
    23     4    17    1
    24     7     8   ar
    25     9    10   ar
    26     1     2    2
    27    17    18   ar
    28    19    20   ar
    29    21    22   ar
    30    11    12   ar
    31     3     5    1
    32     4     6    1
@<TRIPOS>MOLECULE
MolPort-001-809-197 CSSS00106531930 MCULE-2952134515 PubChem-2823008 ZINC000001040089 ZINC01040089
 30 32 0 0 0
SMALL
GASTEIGER

@<TRIPOS>ATOM
      1 C          10.9497   40.8139    9.5055 C.2     1  UNL1        0.3082
      2 O          11.3817   41.9632    9.7903 O.2     1  UNL1       -0.2521
      3 N          11.8194   39.6747    9.5405 N.am    1  UNL1       -0.2656
      4 N           9.5778   40.6189    9.1395 N.am    1  UNL1       -0.2680
      5 H          11.4134   38.8092    9.3056 H       1  UNL1        0.1565
      6 H           9.3052   39.6965    8.9294 H       1  UNL1        0.1564
      7 C          15.9481   39.5878   10.5745 C.ar    1  UNL1        0.1418
      8 C          15.5362   40.1655    9.3659 C.ar    1  UNL1        0.0750
      9 C          14.1852   40.2071    9.0023 C.ar    1  UNL1        0.1551
     10 C          13.2156   39.6512    9.8791 C.ar    1  UNL1        0.0861
     11 C          13.6419   39.0758   11.0863 C.ar    1  UNL1        0.0209
     12 C          14.9927   39.0439   11.4312 C.ar    1  UNL1        0.0384
     13 C          18.1227   38.4150   10.6926 C.3     1  UNL1        0.2525
     14 O          17.2948   39.5421   10.9450 O.3     1  UNL1       -0.4713
     15 C          14.3637   42.0722    7.3332 C.3     1  UNL1        0.2525
     16 O          13.8836   40.8089    7.7698 O.3     1  UNL1       -0.4701
     17 C           8.5597   41.6250    9.0468 C.ar    1  UNL1        0.0548
     18 C           8.8524   42.9890    9.1531 C.ar    1  UNL1        0.0180
     19 C           7.8330   43.9365    9.0624 C.ar    1  UNL1        0.0413
     20 C           6.5006   43.5405    8.8602 C.ar    1  UNL1        0.1725
     21 C           6.2017   42.1613    8.7389 C.ar    1  UNL1        0.1733
     22 C           7.2373   41.2254    8.8420 C.ar    1  UNL1        0.0547
     23 C           4.5427   44.5588    7.7298 C.3     1  UNL1        0.2526
     24 O           5.4828   44.4990    8.7944 O.3     1  UNL1       -0.4684
     25 O           4.9064   41.6624    8.5285 O.3     1  UNL1       -0.4761
     26 C           4.1184   40.9981    9.5090 C.3     1  UNL1        0.1660
     27 C           4.7790   41.1107   10.8711 C.3     1  UNL1        0.0435
     28 C           3.6595   41.3869   11.8458 C.3     1  UNL1        0.0038
     29 C           2.6329   42.1605   11.0530 C.3     1  UNL1        0.0038
     30 C           2.7644   41.6763    9.6228 C.3     1  UNL1        0.0435
@<TRIPOS>BOND
     1    13    14    1
     2     7    14    1
     3     8     9   ar
     4     9    16    1
     5    15    16    1
     6    10     3    1
     7    10    11   ar
     8     1     4   am
     9    18    19   ar
    10    20    24    1
    11    20    21   ar
    12    23    24    1
    13    21    25    1
    14    26    25    1
    15    26    27    1
    16    27    28    1
    17    28    29    1
    18    29    30    1
    19    30    26    1
    20    22    17   ar
    21    12     7   ar
    22     3     1   am
    23     4    17    1
    24     7     8   ar
    25     9    10   ar
    26     1     2    2
    27    17    18   ar
    28    19    20   ar
    29    21    22   ar
    30    11    12   ar
    31     3     5    1
    32     4     6    1
@<TRIPOS>MOLECULE
MolPort-001-809-197 CSSS00106531930 MCULE-2952134515 PubChem-2823008 ZINC000001040089 ZINC01040089
 30 32 0 0 0
SMALL
GASTEIGER

@<TRIPOS>ATOM
      1 C           9.2376   41.4338    9.2399 C.2     1  UNL1        0.3082
      2 O           9.5890   42.5737    8.8325 O.2     1  UNL1       -0.2521
      3 N           7.8557   41.1338    9.4755 N.am    1  UNL1       -0.2656
      4 N          10.2124   40.4103    9.4775 N.am    1  UNL1       -0.2680
      5 H           7.6555   40.2238    9.7934 H       1  UNL1        0.1565
      6 H           9.8713   39.5429    9.7945 H       1  UNL1        0.1564
      7 C           4.5371   43.7447    8.9338 C.ar    1  UNL1        0.1418
      8 C           4.4499   42.6704    9.8295 C.ar    1  UNL1        0.0750
      9 C           5.5263   41.7975   10.0262 C.ar    1  UNL1        0.1551
     10 C           6.7293   42.0086    9.3009 C.ar    1  UNL1        0.0861
     11 C           6.8031   43.0883    8.4070 C.ar    1  UNL1        0.0209
     12 C           5.7198   43.9473    8.2247 C.ar    1  UNL1        0.0384
     13 C           3.1745   45.1956    7.4653 C.3     1  UNL1        0.2525
     14 O           3.4673   44.6207    8.7315 O.3     1  UNL1       -0.4713
     15 C           4.0736   40.3324   11.4544 C.3     1  UNL1        0.2525
     16 O           5.3308   40.7551   10.9468 O.3     1  UNL1       -0.4701
     17 C          11.6320   40.5156    9.3024 C.ar    1  UNL1        0.0548
     18 C          12.1983   41.2603    8.2621 C.ar    1  UNL1        0.0180
     19 C          13.5841   41.3340    8.1229 C.ar    1  UNL1        0.0413
     20 C          14.4325   40.6677    9.0225 C.ar    1  UNL1        0.1725
     21 C          13.8635   39.9234   10.0849 C.ar    1  UNL1        0.1733
     22 C          12.4705   39.8539   10.2021 C.ar    1  UNL1        0.0547
     23 C          16.5083   41.9258    8.5163 C.3     1  UNL1        0.2526
     24 O          15.8211   40.7294    8.8589 O.3     1  UNL1       -0.4684
     25 O          14.6219   39.2282   11.0401 O.3     1  UNL1       -0.4761
     26 C          14.8917   37.8319   11.0094 C.3     1  UNL1        0.1660
     27 C          13.6487   37.0531   11.4001 C.3     1  UNL1        0.0435
     28 C          13.5895   35.8777   10.4542 C.3     1  UNL1        0.0038
     29 C          14.2211   36.3733    9.1749 C.3     1  UNL1        0.0038
     30 C          15.2446   37.4099    9.5938 C.3     1  UNL1        0.0435
@<TRIPOS>BOND
     1    13    14    1
     2     7    14    1
     3     8     9   ar
     4     9    16    1
     5    15    16    1
     6    10     3    1
     7    10    11   ar
     8     1     4   am
     9    18    19   ar
    10    20    24    1
    11    20    21   ar
    12    23    24    1
    13    21    25    1
    14    26    25    1
    15    26    27    1
    16    27    28    1
    17    28    29    1
    18    29    30    1
    19    30    26    1
    20    22    17   ar
    21    12     7   ar
    22     3     1   am
    23     4    17    1
    24     7     8   ar
    25     9    10   ar
    26     1     2    2
    27    17    18   ar
    28    19    20   ar
    29    21    22   ar
    30    11    12   ar
    31     3     5    1
    32     4     6    1
@<TRIPOS>MOLECULE
MolPort-001-809-197 CSSS00106531930 MCULE-2952134515 PubChem-2823008 ZINC000001040089 ZINC01040089
 30 32 0 0 0
SMALL
GASTEIGER

@<TRIPOS>ATOM
      1 C          10.4211   41.1478    9.7462 C.2     1  UNL1        0.3082
      2 O          10.7354   41.4446    8.5622 O.2     1  UNL1       -0.2521
      3 N          11.2514   40.2801   10.5291 N.am    1  UNL1       -0.2656
      4 N           9.2252   41.6712   10.3378 N.am    1  UNL1       -0.2680
      5 H          10.9432   40.0917   11.4450 H       1  UNL1        0.1565
      6 H           9.0385   41.4005   11.2658 H       1  UNL1        0.1564
      7 C          14.9128   38.4564    9.3497 C.ar    1  UNL1        0.1418
      8 C          13.7596   37.6779    9.5173 C.ar    1  UNL1        0.0750
      9 C          12.5433   38.2527    9.9042 C.ar    1  UNL1        0.1551
     10 C          12.4816   39.6537   10.1307 C.ar    1  UNL1        0.0861
     11 C          13.6441   40.4214    9.9593 C.ar    1  UNL1        0.0209
     12 C          14.8467   39.8306    9.5732 C.ar    1  UNL1        0.0384
     13 C          16.6250   36.6793    9.5190 C.3     1  UNL1        0.2525
     14 O          16.1309   37.8905    8.9637 O.3     1  UNL1       -0.4713
     15 C          11.5100   36.0705   10.5872 C.3     1  UNL1        0.2525
     16 O          11.4512   37.3807   10.0425 O.3     1  UNL1       -0.4701
     17 C           8.2716   42.5476    9.7215 C.ar    1  UNL1        0.0548
     18 C           8.5400   43.9039    9.5078 C.ar    1  UNL1        0.0180
     19 C           7.5841   44.7246    8.9095 C.ar    1  UNL1        0.0413
     20 C           6.3416   44.2058    8.5094 C.ar    1  UNL1        0.1725
     21 C           6.0709   42.8303    8.7119 C.ar    1  UNL1        0.1733
     22 C           7.0394   42.0252    9.3225 C.ar    1  UNL1        0.0547
     23 C           3.9842   44.7941    8.0149 C.3     1  UNL1        0.2526
     24 O           5.3811   45.0439    7.9314 O.3     1  UNL1       -0.4684
     25 O           4.8655   42.2129    8.3422 O.3     1  UNL1       -0.4761
     26 C           3.9677   41.5719    9.2403 C.3     1  UNL1        0.1660
     27 C           4.6972   40.4983   10.0274 C.3     1  UNL1        0.0435
     28 C           4.1888   40.6148   11.4443 C.3     1  UNL1        0.0038
     29 C           3.8595   42.0780   11.6224 C.3     1  UNL1        0.0038
     30 C           3.4497   42.5792   10.2519 C.3     1  UNL1        0.0435
@<TRIPOS>BOND
     1    13    14    1
     2     7    14    1
     3     8     9   ar
     4     9    16    1
     5    15    16    1
     6    10     3    1
     7    10    11   ar
     8     1     4   am
     9    18    19   ar
    10    20    24    1
    11    20    21   ar
    12    23    24    1
    13    21    25    1
    14    26    25    1
    15    26    27    1
    16    27    28    1
    17    28    29    1
    18    29    30    1
    19    30    26    1
    20    22    17   ar
    21    12     7   ar
    22     3     1   am
    23     4    17    1
    24     7     8   ar
    25     9    10   ar
    26     1     2    2
    27    17    18   ar
    28    19    20   ar
    29    21    22   ar
    30    11    12   ar
    31     3     5    1
    32     4     6    1
@<TRIPOS>MOLECULE
MolPort-001-809-197 CSSS00106531930 MCULE-2952134515 PubChem-2823008 ZINC000001040089 ZINC01040089
 30 32 0 0 0
SMALL
GASTEIGER

@<TRIPOS>ATOM
      1 C           6.3594   41.1573    8.5776 C.2     1  UNL1        0.3082
      2 O           7.0437   41.6498    9.5146 O.2     1  UNL1       -0.2521
      3 N           4.9546   40.9230    8.7410 N.am    1  UNL1       -0.2656
      4 N           6.9706   40.8198    7.3259 N.am    1  UNL1       -0.2680
      5 H           4.4846   40.5357    7.9674 H       1  UNL1        0.1565
      6 H           6.3799   40.4394    6.6362 H       1  UNL1        0.1564
      7 C           2.5964   41.6808   12.2033 C.ar    1  UNL1        0.1418
      8 C           2.5026   42.5244   11.0882 C.ar    1  UNL1        0.0750
      9 C           3.2666   42.2974    9.9375 C.ar    1  UNL1        0.1551
     10 C           4.1537   41.1884    9.9040 C.ar    1  UNL1        0.0861
     11 C           4.2379   40.3516   11.0278 C.ar    1  UNL1        0.0209
     12 C           3.4683   40.5941   12.1651 C.ar    1  UNL1        0.0384
     13 C           0.7024   42.7553   13.3765 C.3     1  UNL1        0.2525
     14 O           1.8373   41.9003   13.3559 O.3     1  UNL1       -0.4713
     15 C           4.0128   44.2237    8.5130 C.3     1  UNL1        0.2525
     16 O           3.0944   43.2041    8.8790 O.3     1  UNL1       -0.4701
     17 C           8.3514   40.9773    6.9713 C.ar    1  UNL1        0.0548
     18 C           8.7475   41.3834    5.6924 C.ar    1  UNL1        0.0180
     19 C          10.1011   41.5202    5.3854 C.ar    1  UNL1        0.0413
     20 C          11.0865   41.2572    6.3512 C.ar    1  UNL1        0.1725
     21 C          10.6894   40.8585    7.6511 C.ar    1  UNL1        0.1733
     22 C           9.3265   40.7179    7.9369 C.ar    1  UNL1        0.0547
     23 C          13.1782   42.5795    6.1945 C.3     1  UNL1        0.2526
     24 O          12.4424   41.3751    6.0247 O.3     1  UNL1       -0.4684
     25 O          11.5933   40.5793    8.6883 O.3     1  UNL1       -0.4761
     26 C          11.7339   41.3476    9.8773 C.3     1  UNL1        0.1660
     27 C          10.9803   42.6583    9.7420 C.3     1  UNL1        0.0435
     28 C          10.3006   42.8774   11.0722 C.3     1  UNL1        0.0038
     29 C          10.0118   41.4908   11.5967 C.3     1  UNL1        0.0038
     30 C          11.1094   40.6032   11.0445 C.3     1  UNL1        0.0435
@<TRIPOS>BOND
     1    13    14    1
     2     7    14    1
     3     8     9   ar
     4     9    16    1
     5    15    16    1
     6    10     3    1
     7    10    11   ar
     8     1     4   am
     9    18    19   ar
    10    20    24    1
    11    20    21   ar
    12    23    24    1
    13    21    25    1
    14    26    25    1
    15    26    27    1
    16    27    28    1
    17    28    29    1
    18    29    30    1
    19    30    26    1
    20    22    17   ar
    21    12     7   ar
    22     3     1   am
    23     4    17    1
    24     7     8   ar
    25     9    10   ar
    26     1     2    2
    27    17    18   ar
    28    19    20   ar
    29    21    22   ar
    30    11    12   ar
    31     3     5    1
    32     4     6    1
