@<TRIPOS>MOLECULE
MolPort-039-210-490 CSSS03437013364 MCULE-2337650426 PubChem-121017037
 26 29 0 0 0
SMALL
GASTEIGER

@<TRIPOS>ATOM
      1 N          11.5960   41.0970    5.4892 N.pl3   1  UNL1       -0.2119
      2 H          12.0749   41.4750    4.7166 H       1  UNL1        0.1738
      3 N           8.2705   39.8534    5.5678 N.ar    1  UNL1       -0.2456
      4 N           8.6500   39.3797    4.3910 N.ar    1  UNL1       -0.1662
      5 C          10.3197   40.4937    5.2771 C.ar    1  UNL1        0.1043
      6 C           9.2636   40.5421    6.1572 C.ar    1  UNL1        0.1125
      7 C           9.9237   39.7616    4.1734 C.ar    1  UNL1        0.1375
      8 C           6.9609   39.6128    6.1511 C.3     1  UNL1        0.1569
      9 O           7.4396   40.6282    8.2744 O.3     1  UNL1       -0.3542
     10 C           6.6127   40.7141    7.1382 C.3     1  UNL1        0.1395
     11 C           6.7504   42.0821    6.4533 C.3     1  UNL1        0.0317
     12 C           7.4413   43.1025    7.3624 C.3     1  UNL1        0.0051
     13 C           6.9890   42.9596    8.8180 C.3     1  UNL1        0.0322
     14 C           6.8696   41.4844    9.2348 C.3     1  UNL1        0.1421
     15 O          12.6489   39.8015    7.5362 O.2     1  UNL1       -0.1499
     16 O          11.3975   41.8696    8.0112 O.2     1  UNL1       -0.1499
     17 S          12.3346   41.1896    7.0533 S.O2    1  UNL1        0.0737
     18 O          17.3944   44.1950    6.8191 O.3     1  UNL1       -0.4754
     19 C          13.8203   42.1144    6.9449 C.ar    1  UNL1        0.1251
     20 C          14.8780   41.8595    7.8366 C.ar    1  UNL1        0.0190
     21 C          16.0423   42.6159    7.7118 C.ar    1  UNL1        0.0169
     22 C          16.1652   43.5799    6.7550 C.ar    1  UNL1        0.1347
     23 C          18.1693   43.6304    7.8773 C.3     1  UNL1        0.2102
     24 C          17.2832   42.5408    8.5210 C.3     1  UNL1        0.0768
     25 C          15.1389   43.8580    5.8541 C.ar    1  UNL1        0.0379
     26 C          13.9538   43.1112    5.9562 C.ar    1  UNL1        0.0233
@<TRIPOS>BOND
     1    17     1    1
     2    17    19    1
     3     1     5    1
     4     3     4   ar
     5     6     3   ar
     6     8     3    1
     7    10     8    1
     8    10    11    1
     9    10     9    1
    10    11    12    1
    11    12    13    1
    12    13    14    1
    13    14     9    1
    14     7     5   ar
    15    20    21   ar
    16    22    18    1
    17    22    25   ar
    18    23    18    1
    19    23    24    1
    20    24    21    1
    21    26    19   ar
    22    17    15    2
    23    17    16    2
    24     5     6   ar
    25     7     4   ar
    26    19    20   ar
    27    21    22   ar
    28    25    26   ar
    29     1     2    1
@<TRIPOS>MOLECULE
MolPort-039-210-490 CSSS03437013364 MCULE-2337650426 PubChem-121017037
 26 29 0 0 0
SMALL
GASTEIGER

@<TRIPOS>ATOM
      1 N          11.7384   38.7182    7.7775 N.pl3   1  UNL1       -0.2119
      2 H          11.5818   37.9816    7.1434 H       1  UNL1        0.1738
      3 N          12.8493   42.0059    7.0235 N.ar    1  UNL1       -0.2456
      4 N          12.0052   41.8280    6.0190 N.ar    1  UNL1       -0.1662
      5 C          12.0172   40.0198    7.2617 C.ar    1  UNL1        0.1043
      6 C          12.8896   40.9243    7.8212 C.ar    1  UNL1        0.1125
      7 C          11.4679   40.5975    6.1324 C.ar    1  UNL1        0.1375
      8 C          13.5941   43.2345    7.2446 C.3     1  UNL1        0.1569
      9 O          15.5555   44.3521    6.4245 O.3     1  UNL1       -0.3542
     10 C          15.0171   43.0883    6.7323 C.3     1  UNL1        0.1395
     11 C          15.8705   42.3619    7.7828 C.3     1  UNL1        0.0317
     12 C          17.2465   43.0146    7.9428 C.3     1  UNL1        0.0051
     13 C          17.8179   43.4655    6.5960 C.3     1  UNL1        0.0322
     14 C          16.7397   44.1048    5.7055 C.3     1  UNL1        0.1421
     15 O          10.9220   37.0969    9.6963 O.2     1  UNL1       -0.1499
     16 O          10.9631   39.5124   10.1785 O.2     1  UNL1       -0.1499
     17 S          11.6649   38.3847    9.4756 S.O2    1  UNL1        0.0737
     18 O          17.1761   37.7852   11.4646 O.3     1  UNL1       -0.4754
     19 C          13.2911   38.2306   10.1126 C.ar    1  UNL1        0.1251
     20 C          14.2743   37.5402    9.3809 C.ar    1  UNL1        0.0190
     21 C          15.5549   37.4455    9.9235 C.ar    1  UNL1        0.0169
     22 C          15.8592   38.0030   11.1303 C.ar    1  UNL1        0.1347
     23 C          17.8241   37.0353   10.4366 C.3     1  UNL1        0.2102
     24 C          16.7512   36.7773    9.3554 C.3     1  UNL1        0.0768
     25 C          14.9110   38.6953   11.8814 C.ar    1  UNL1        0.0379
     26 C          13.6121   38.8069   11.3592 C.ar    1  UNL1        0.0233
@<TRIPOS>BOND
     1    17     1    1
     2    17    19    1
     3     1     5    1
     4     3     4   ar
     5     6     3   ar
     6     8     3    1
     7    10     8    1
     8    10    11    1
     9    10     9    1
    10    11    12    1
    11    12    13    1
    12    13    14    1
    13    14     9    1
    14     7     5   ar
    15    20    21   ar
    16    22    18    1
    17    22    25   ar
    18    23    18    1
    19    23    24    1
    20    24    21    1
    21    26    19   ar
    22    17    15    2
    23    17    16    2
    24     5     6   ar
    25     7     4   ar
    26    19    20   ar
    27    21    22   ar
    28    25    26   ar
    29     1     2    1
@<TRIPOS>MOLECULE
MolPort-039-210-490 CSSS03437013364 MCULE-2337650426 PubChem-121017037
 26 29 0 0 0
SMALL
GASTEIGER

@<TRIPOS>ATOM
      1 N          14.0339   39.8222   10.8292 N.pl3   1  UNL1       -0.2119
      2 H          14.1941   39.9089   11.7967 H       1  UNL1        0.1738
      3 N          10.9083   39.4543    9.1841 N.ar    1  UNL1       -0.2456
      4 N          10.5639   40.3409   10.1053 N.ar    1  UNL1       -0.1662
      5 C          12.6894   39.8548   10.3507 C.ar    1  UNL1        0.1043
      6 C          12.2079   39.1259    9.2880 C.ar    1  UNL1        0.1125
      7 C          11.6498   40.6135   10.8551 C.ar    1  UNL1        0.1375
      8 C           9.9972   38.9463    8.1716 C.3     1  UNL1        0.1569
      9 O           9.6184   38.8138    5.8035 O.3     1  UNL1       -0.3542
     10 C          10.5391   39.2351    6.7817 C.3     1  UNL1        0.1395
     11 C          10.8431   40.7350    6.6489 C.3     1  UNL1        0.0317
     12 C          10.3749   41.2894    5.3004 C.3     1  UNL1        0.0051
     13 C          10.6342   40.2993    4.1618 C.3     1  UNL1        0.0322
     14 C          10.3084   38.8554    4.5777 C.3     1  UNL1        0.1421
     15 O          15.1892   38.4236    8.9092 O.2     1  UNL1       -0.1499
     16 O          16.6462   39.4812   10.5907 O.2     1  UNL1       -0.1499
     17 S          15.3945   39.6359    9.7735 S.O2    1  UNL1        0.0737
     18 O          15.7231   44.3785    6.2966 O.3     1  UNL1       -0.4754
     19 C          15.5427   41.0546    8.7539 C.ar    1  UNL1        0.1251
     20 C          14.4781   41.4390    7.9187 C.ar    1  UNL1        0.0190
     21 C          14.6378   42.5758    7.1279 C.ar    1  UNL1        0.0169
     22 C          15.7902   43.3046    7.1543 C.ar    1  UNL1        0.1347
     23 C          14.4571   44.3990    5.6365 C.3     1  UNL1        0.2102
     24 C          13.6754   43.1798    6.1743 C.3     1  UNL1        0.0768
     25 C          16.8641   42.9543    7.9706 C.ar    1  UNL1        0.0379
     26 C          16.7313   41.8133    8.7786 C.ar    1  UNL1        0.0233
@<TRIPOS>BOND
     1    17     1    1
     2    17    19    1
     3     1     5    1
     4     3     4   ar
     5     6     3   ar
     6     8     3    1
     7    10     8    1
     8    10    11    1
     9    10     9    1
    10    11    12    1
    11    12    13    1
    12    13    14    1
    13    14     9    1
    14     7     5   ar
    15    20    21   ar
    16    22    18    1
    17    22    25   ar
    18    23    18    1
    19    23    24    1
    20    24    21    1
    21    26    19   ar
    22    17    15    2
    23    17    16    2
    24     5     6   ar
    25     7     4   ar
    26    19    20   ar
    27    21    22   ar
    28    25    26   ar
    29     1     2    1
@<TRIPOS>MOLECULE
MolPort-039-210-490 CSSS03437013364 MCULE-2337650426 PubChem-121017037
 26 29 0 0 0
SMALL
GASTEIGER

@<TRIPOS>ATOM
      1 N          12.4275   40.3414   10.3977 N.pl3   1  UNL1       -0.2119
      2 H          13.0322   40.3249   11.1744 H       1  UNL1        0.1738
      3 N           9.1347   41.6467   10.1426 N.ar    1  UNL1       -0.2456
      4 N           9.2388   41.5806   11.4610 N.ar    1  UNL1       -0.1662
      5 C          11.1075   40.8580   10.5666 C.ar    1  UNL1        0.1043
      6 C          10.2603   41.2187    9.5446 C.ar    1  UNL1        0.1125
      7 C          10.4567   41.0899   11.7638 C.ar    1  UNL1        0.1375
      8 C           7.9645   42.1599    9.4497 C.3     1  UNL1        0.1569
      9 O           6.0841   41.9113   10.9232 O.3     1  UNL1       -0.3542
     10 C           6.7360   41.3426    9.8125 C.3     1  UNL1        0.1395
     11 C           5.7965   41.2590    8.6001 C.3     1  UNL1        0.0317
     12 C           4.3331   41.4594    9.0040 C.3     1  UNL1        0.0051
     13 C           4.0145   40.7700   10.3333 C.3     1  UNL1        0.0322
     14 C           5.1479   40.9538   11.3559 C.3     1  UNL1        0.1421
     15 O          11.8657   39.1202    8.1238 O.2     1  UNL1       -0.1499
     16 O          14.0835   38.7222    9.1198 O.2     1  UNL1       -0.1499
     17 S          13.0066   39.7423    8.8791 S.O2    1  UNL1        0.0737
     18 O          15.3789   44.1764    5.8132 O.3     1  UNL1       -0.4754
     19 C          13.6668   41.0680    7.9404 C.ar    1  UNL1        0.1251
     20 C          14.9666   41.5391    8.1999 C.ar    1  UNL1        0.0190
     21 C          15.4528   42.5922    7.4267 C.ar    1  UNL1        0.0169
     22 C          14.6985   43.1592    6.4420 C.ar    1  UNL1        0.1347
     23 C          16.6761   44.3274    6.3907 C.3     1  UNL1        0.2102
     24 C          16.7745   43.2611    7.5041 C.3     1  UNL1        0.0768
     25 C          13.4080   42.7169    6.1565 C.ar    1  UNL1        0.0379
     26 C          12.8921   41.6567    6.9195 C.ar    1  UNL1        0.0233
@<TRIPOS>BOND
     1    17     1    1
     2    17    19    1
     3     1     5    1
     4     3     4   ar
     5     6     3   ar
     6     8     3    1
     7    10     8    1
     8    10    11    1
     9    10     9    1
    10    11    12    1
    11    12    13    1
    12    13    14    1
    13    14     9    1
    14     7     5   ar
    15    20    21   ar
    16    22    18    1
    17    22    25   ar
    18    23    18    1
    19    23    24    1
    20    24    21    1
    21    26    19   ar
    22    17    15    2
    23    17    16    2
    24     5     6   ar
    25     7     4   ar
    26    19    20   ar
    27    21    22   ar
    28    25    26   ar
    29     1     2    1
@<TRIPOS>MOLECULE
MolPort-039-210-490 CSSS03437013364 MCULE-2337650426 PubChem-121017037
 26 29 0 0 0
SMALL
GASTEIGER

@<TRIPOS>ATOM
      1 N          13.9818   39.4350   10.8204 N.pl3   1  UNL1       -0.2119
      2 H          13.9487   39.7727   11.7446 H       1  UNL1        0.1738
      3 N          10.9103   38.8185    9.1479 N.ar    1  UNL1       -0.2456
      4 N          11.1605   37.5979    9.5960 N.ar    1  UNL1       -0.1662
      5 C          12.7834   38.9310   10.2308 C.ar    1  UNL1        0.1043
      6 C          11.8762   39.6784    9.5161 C.ar    1  UNL1        0.1125
      7 C          12.3240   37.6280   10.2750 C.ar    1  UNL1        0.1375
      8 C           9.7187   39.1739    8.3950 C.3     1  UNL1        0.1569
      9 O           8.5251   41.0574    7.5025 O.3     1  UNL1       -0.3542
     10 C           9.4784   40.6727    8.4644 C.3     1  UNL1        0.1395
     11 C           9.0244   41.0564    9.8807 C.3     1  UNL1        0.0317
     12 C           7.8686   42.0606    9.8513 C.3     1  UNL1        0.0051
     13 C           8.0516   43.1001    8.7424 C.3     1  UNL1        0.0322
     14 C           8.5767   42.4626    7.4455 C.3     1  UNL1        0.1421
     15 O          15.6607   38.1976    9.1994 O.2     1  UNL1       -0.1499
     16 O          16.6158   39.6347   10.9576 O.2     1  UNL1       -0.1499
     17 S          15.4919   39.4752    9.9729 S.O2    1  UNL1        0.0737
     18 O          15.6979   44.0590    6.2804 O.3     1  UNL1       -0.4754
     19 C          15.5027   40.8304    8.8604 C.ar    1  UNL1        0.1251
     20 C          16.6385   41.6543    8.7612 C.ar    1  UNL1        0.0190
     21 C          16.6048   42.7180    7.8608 C.ar    1  UNL1        0.0169
     22 C          15.5062   42.9638    7.0909 C.ar    1  UNL1        0.1347
     23 C          16.9988   44.6065    6.4973 C.3     1  UNL1        0.2102
     24 C          17.6610   43.7195    7.5750 C.3     1  UNL1        0.0768
     25 C          14.3646   42.1675    7.1617 C.ar    1  UNL1        0.0379
     26 C          14.3703   41.0881    8.0602 C.ar    1  UNL1        0.0233
@<TRIPOS>BOND
     1    17     1    1
     2    17    19    1
     3     1     5    1
     4     3     4   ar
     5     6     3   ar
     6     8     3    1
     7    10     8    1
     8    10    11    1
     9    10     9    1
    10    11    12    1
    11    12    13    1
    12    13    14    1
    13    14     9    1
    14     7     5   ar
    15    20    21   ar
    16    22    18    1
    17    22    25   ar
    18    23    18    1
    19    23    24    1
    20    24    21    1
    21    26    19   ar
    22    17    15    2
    23    17    16    2
    24     5     6   ar
    25     7     4   ar
    26    19    20   ar
    27    21    22   ar
    28    25    26   ar
    29     1     2    1
@<TRIPOS>MOLECULE
MolPort-039-210-490 CSSS03437013364 MCULE-2337650426 PubChem-121017037
 26 29 0 0 0
SMALL
GASTEIGER

@<TRIPOS>ATOM
      1 N          12.0986   41.1512    9.6808 N.pl3   1  UNL1       -0.2119
      2 H          12.7269   40.9955   10.4226 H       1  UNL1        0.1738
      3 N           8.7419   42.1338   10.2965 N.ar    1  UNL1       -0.2456
      4 N           9.3371   43.3100   10.4212 N.ar    1  UNL1       -0.1662
      5 C          10.8549   41.7945    9.9588 C.ar    1  UNL1        0.1043
      6 C           9.6312   41.1679   10.0063 C.ar    1  UNL1        0.1125
      7 C          10.6582   43.1376   10.2199 C.ar    1  UNL1        0.1375
      8 C           7.3066   41.9381   10.4171 C.3     1  UNL1        0.1569
      9 O           6.9040   43.8304    8.9937 O.3     1  UNL1       -0.3542
     10 C           6.5962   42.4698    9.1835 C.3     1  UNL1        0.1395
     11 C           6.9962   41.6338    7.9585 C.3     1  UNL1        0.0317
     12 C           7.2706   42.5159    6.7372 C.3     1  UNL1        0.0051
     13 C           6.2773   43.6773    6.6447 C.3     1  UNL1        0.0322
     14 C           6.0005   44.3007    8.0226 C.3     1  UNL1        0.1421
     15 O          11.3187   40.5843    7.2217 O.2     1  UNL1       -0.1499
     16 O          13.1806   39.2744    8.1631 O.2     1  UNL1       -0.1499
     17 S          12.5451   40.6341    8.0891 S.O2    1  UNL1        0.0737
     18 O          16.5223   44.3844    5.8970 O.3     1  UNL1       -0.4754
     19 C          13.6916   41.7705    7.4047 C.ar    1  UNL1        0.1251
     20 C          15.0046   41.8375    7.9049 C.ar    1  UNL1        0.0190
     21 C          15.8839   42.7528    7.3284 C.ar    1  UNL1        0.0169
     22 C          15.4939   43.5670    6.3062 C.ar    1  UNL1        0.1347
     23 C          17.6912   44.1271    6.6759 C.3     1  UNL1        0.2102
     24 C          17.3027   43.0134    7.6737 C.3     1  UNL1        0.0768
     25 C          14.2021   43.5266    5.7848 C.ar    1  UNL1        0.0379
     26 C          13.2945   42.6136    6.3461 C.ar    1  UNL1        0.0233
@<TRIPOS>BOND
     1    17     1    1
     2    17    19    1
     3     1     5    1
     4     3     4   ar
     5     6     3   ar
     6     8     3    1
     7    10     8    1
     8    10    11    1
     9    10     9    1
    10    11    12    1
    11    12    13    1
    12    13    14    1
    13    14     9    1
    14     7     5   ar
    15    20    21   ar
    16    22    18    1
    17    22    25   ar
    18    23    18    1
    19    23    24    1
    20    24    21    1
    21    26    19   ar
    22    17    15    2
    23    17    16    2
    24     5     6   ar
    25     7     4   ar
    26    19    20   ar
    27    21    22   ar
    28    25    26   ar
    29     1     2    1
@<TRIPOS>MOLECULE
MolPort-039-210-490 CSSS03437013364 MCULE-2337650426 PubChem-121017037
 26 29 0 0 0
SMALL
GASTEIGER

@<TRIPOS>ATOM
      1 N          11.9383   40.3974    9.0055 N.pl3   1  UNL1       -0.2119
      2 H          11.3564   40.8133    9.6820 H       1  UNL1        0.1738
      3 N          14.0006   37.9816   10.5936 N.ar    1  UNL1       -0.2456
      4 N          14.0129   37.4985    9.3608 N.ar    1  UNL1       -0.1662
      5 C          12.7796   39.3128    9.3975 C.ar    1  UNL1        0.1043
      6 C          13.2601   39.1013   10.6690 C.ar    1  UNL1        0.1125
      7 C          13.2586   38.3019    8.5854 C.ar    1  UNL1        0.1375
      8 C          14.7345   37.3900   11.7002 C.3     1  UNL1        0.1569
      9 O          16.8317   36.9551   10.6132 O.3     1  UNL1       -0.3542
     10 C          16.2097   37.7407   11.6022 C.3     1  UNL1        0.1395
     11 C          16.3640   39.2387   11.2998 C.3     1  UNL1        0.0317
     12 C          17.4401   39.4937   10.2405 C.3     1  UNL1        0.0051
     13 C          18.6463   38.5695   10.4268 C.3     1  UNL1        0.0322
     14 C          18.2163   37.1378   10.7865 C.3     1  UNL1        0.1421
     15 O          10.6854   41.8756    7.2104 O.2     1  UNL1       -0.1499
     16 O          11.8627   39.8628    6.4160 O.2     1  UNL1       -0.1499
     17 S          11.9016   41.0101    7.3858 S.O2    1  UNL1        0.0737
     18 O          16.8221   44.1259    6.5087 O.3     1  UNL1       -0.4754
     19 C          13.3402   41.9676    7.0896 C.ar    1  UNL1        0.1251
     20 C          14.5133   41.7276    7.8277 C.ar    1  UNL1        0.0190
     21 C          15.6347   42.5100    7.5564 C.ar    1  UNL1        0.0169
     22 C          15.6081   43.4850    6.6033 C.ar    1  UNL1        0.1347
     23 C          17.7437   43.5686    7.4464 C.3     1  UNL1        0.2102
     24 C          16.9746   42.4544    8.1904 C.3     1  UNL1        0.0768
     25 C          14.4644   43.7491    5.8520 C.ar    1  UNL1        0.0379
     26 C          13.3192   42.9760    6.1037 C.ar    1  UNL1        0.0233
@<TRIPOS>BOND
     1    17     1    1
     2    17    19    1
     3     1     5    1
     4     3     4   ar
     5     6     3   ar
     6     8     3    1
     7    10     8    1
     8    10    11    1
     9    10     9    1
    10    11    12    1
    11    12    13    1
    12    13    14    1
    13    14     9    1
    14     7     5   ar
    15    20    21   ar
    16    22    18    1
    17    22    25   ar
    18    23    18    1
    19    23    24    1
    20    24    21    1
    21    26    19   ar
    22    17    15    2
    23    17    16    2
    24     5     6   ar
    25     7     4   ar
    26    19    20   ar
    27    21    22   ar
    28    25    26   ar
    29     1     2    1
@<TRIPOS>MOLECULE
MolPort-039-210-490 CSSS03437013364 MCULE-2337650426 PubChem-121017037
 26 29 0 0 0
SMALL
GASTEIGER

@<TRIPOS>ATOM
      1 N          12.8676   40.2038   10.6174 N.pl3   1  UNL1       -0.2119
      2 H          13.2707   40.1703   11.5149 H       1  UNL1        0.1738
      3 N           9.7900   41.6680    9.6193 N.ar    1  UNL1       -0.2456
      4 N           9.5139   41.4331   10.8929 N.ar    1  UNL1       -0.1662
      5 C          11.5565   40.7502   10.4741 C.ar    1  UNL1        0.1043
      6 C          11.0373   41.2712    9.3117 C.ar    1  UNL1        0.1125
      7 C          10.5927   40.8576   11.4591 C.ar    1  UNL1        0.1375
      8 C           8.8680   42.3126    8.6987 C.3     1  UNL1        0.1569
      9 O           8.4958   40.0406    8.0142 O.3     1  UNL1       -0.3542
     10 C           8.5183   41.3721    7.5576 C.3     1  UNL1        0.1395
     11 C           7.1643   41.7753    6.9546 C.3     1  UNL1        0.0317
     12 C           6.2858   40.5537    6.6701 C.3     1  UNL1        0.0051
     13 C           7.1068   39.3823    6.1244 C.3     1  UNL1        0.0322
     14 C           8.4485   39.2356    6.8609 C.3     1  UNL1        0.1421
     15 O          12.8480   38.8936    8.3239 O.2     1  UNL1       -0.1499
     16 O          14.8285   38.6451    9.7678 O.2     1  UNL1       -0.1499
     17 S          13.7765   39.5975    9.2733 S.O2    1  UNL1        0.0737
     18 O          16.5287   44.0487    6.5714 O.3     1  UNL1       -0.4754
     19 C          14.5516   40.9321    8.4413 C.ar    1  UNL1        0.1251
     20 C          15.8600   41.3161    8.7867 C.ar    1  UNL1        0.0190
     21 C          16.4388   42.3800    8.0964 C.ar    1  UNL1        0.0169
     22 C          15.7652   43.0390    7.1106 C.ar    1  UNL1        0.1347
     23 C          17.8019   44.0969    7.2162 C.3     1  UNL1        0.2102
     24 C          17.7885   42.9696    8.2723 C.3     1  UNL1        0.0768
     25 C          14.4690   42.6846    6.7411 C.ar    1  UNL1        0.0379
     26 C          13.8606   41.6159    7.4195 C.ar    1  UNL1        0.0233
@<TRIPOS>BOND
     1    17     1    1
     2    17    19    1
     3     1     5    1
     4     3     4   ar
     5     6     3   ar
     6     8     3    1
     7    10     8    1
     8    10    11    1
     9    10     9    1
    10    11    12    1
    11    12    13    1
    12    13    14    1
    13    14     9    1
    14     7     5   ar
    15    20    21   ar
    16    22    18    1
    17    22    25   ar
    18    23    18    1
    19    23    24    1
    20    24    21    1
    21    26    19   ar
    22    17    15    2
    23    17    16    2
    24     5     6   ar
    25     7     4   ar
    26    19    20   ar
    27    21    22   ar
    28    25    26   ar
    29     1     2    1
@<TRIPOS>MOLECULE
MolPort-039-210-490 CSSS03437013364 MCULE-2337650426 PubChem-121017037
 26 29 0 0 0
SMALL
GASTEIGER

@<TRIPOS>ATOM
      1 N          11.3288   42.1329    8.4615 N.pl3   1  UNL1       -0.2119
      2 H          11.7882   42.7824    9.0414 H       1  UNL1        0.1738
      3 N           8.0719   41.6130    9.7784 N.ar    1  UNL1       -0.2456
      4 N           7.9907   40.8536    8.6966 N.ar    1  UNL1       -0.1662
      5 C           9.9851   41.7651    8.7732 C.ar    1  UNL1        0.1043
      6 C           9.2813   42.1923    9.8753 C.ar    1  UNL1        0.1125
      7 C           9.1661   40.9256    8.0416 C.ar    1  UNL1        0.1375
      8 C           6.9981   41.7550   10.7478 C.3     1  UNL1        0.1569
      9 O           4.7608   40.9604   11.1109 O.3     1  UNL1       -0.3542
     10 C           5.6665   41.3810   10.1186 C.3     1  UNL1        0.1395
     11 C           5.1130   42.5799    9.3338 C.3     1  UNL1        0.0317
     12 C           3.6115   42.7660    9.5706 C.3     1  UNL1        0.0051
     13 C           2.8791   41.4232    9.6348 C.3     1  UNL1        0.0322
     14 C           3.6792   40.3756   10.4263 C.3     1  UNL1        0.1421
     15 O          11.3210   41.5928    5.8759 O.2     1  UNL1       -0.1499
     16 O          12.5196   40.0402    7.3663 O.2     1  UNL1       -0.1499
     17 S          12.1821   41.4806    7.1026 S.O2    1  UNL1        0.0737
     18 O          17.2396   44.4130    6.3874 O.3     1  UNL1       -0.4754
     19 C          13.6639   42.3842    6.8535 C.ar    1  UNL1        0.1251
     20 C          14.8002   42.1076    7.6351 C.ar    1  UNL1        0.0190
     21 C          15.9580   42.8477    7.4003 C.ar    1  UNL1        0.0169
     22 C          16.0008   43.8165    6.4414 C.ar    1  UNL1        0.1347
     23 C          18.1062   43.8297    7.3609 C.3     1  UNL1        0.2102
     24 C          17.2713   42.7488    8.0828 C.3     1  UNL1        0.0768
     25 C          14.8951   44.1159    5.6476 C.ar    1  UNL1        0.0379
     26 C          13.7146   43.3858    5.8619 C.ar    1  UNL1        0.0233
@<TRIPOS>BOND
     1    17     1    1
     2    17    19    1
     3     1     5    1
     4     3     4   ar
     5     6     3   ar
     6     8     3    1
     7    10     8    1
     8    10    11    1
     9    10     9    1
    10    11    12    1
    11    12    13    1
    12    13    14    1
    13    14     9    1
    14     7     5   ar
    15    20    21   ar
    16    22    18    1
    17    22    25   ar
    18    23    18    1
    19    23    24    1
    20    24    21    1
    21    26    19   ar
    22    17    15    2
    23    17    16    2
    24     5     6   ar
    25     7     4   ar
    26    19    20   ar
    27    21    22   ar
    28    25    26   ar
    29     1     2    1
@<TRIPOS>MOLECULE
MolPort-039-210-490 CSSS03437013364 MCULE-2337650426 PubChem-121017037
 26 29 0 0 0
SMALL
GASTEIGER

@<TRIPOS>ATOM
      1 N           9.2766   41.8931    5.7830 N.pl3   1  UNL1       -0.2119
      2 H           9.3234   42.6871    5.2029 H       1  UNL1        0.1738
      3 N          12.4340   41.1725    7.2401 N.ar    1  UNL1       -0.2456
      4 N          12.0911   39.9529    6.8549 N.ar    1  UNL1       -0.1662
      5 C          10.4909   41.3470    6.2980 C.ar    1  UNL1        0.1043
      6 C          11.4857   42.0688    6.9159 C.ar    1  UNL1        0.1125
      7 C          10.8816   40.0215    6.2648 C.ar    1  UNL1        0.1375
      8 C          13.6959   41.4897    7.8883 C.3     1  UNL1        0.1569
      9 O          13.9301   43.6644    6.8959 O.3     1  UNL1       -0.3542
     10 C          14.5319   42.3959    7.0003 C.3     1  UNL1        0.1395
     11 C          15.9556   42.5017    7.5674 C.3     1  UNL1        0.0317
     12 C          16.4769   43.9408    7.5216 C.3     1  UNL1        0.0051
     13 C          16.0555   44.6536    6.2339 C.3     1  UNL1        0.0322
     14 C          14.6020   44.3280    5.8525 C.3     1  UNL1        0.1421
     15 O           7.7114   39.7660    5.7323 O.2     1  UNL1       -0.1499
     16 O           6.6616   41.9684    5.3919 O.2     1  UNL1       -0.1499
     17 S           7.7240   41.2127    6.1393 S.O2    1  UNL1        0.0737
     18 O           6.8581   41.6269   11.9502 O.3     1  UNL1       -0.4754
     19 C           7.4140   41.3318    7.8609 C.ar    1  UNL1        0.1251
     20 C           8.4860   41.3985    8.7691 C.ar    1  UNL1        0.0190
     21 C           8.1934   41.4964   10.1285 C.ar    1  UNL1        0.0169
     22 C           6.9064   41.5279   10.5787 C.ar    1  UNL1        0.1347
     23 C           8.1817   41.6656   12.4848 C.3     1  UNL1        0.2102
     24 C           9.1347   41.5786   11.2720 C.3     1  UNL1        0.0768
     25 C           5.8202   41.4657    9.7077 C.ar    1  UNL1        0.0379
     26 C           6.0851   41.3669    8.3320 C.ar    1  UNL1        0.0233
@<TRIPOS>BOND
     1    17     1    1
     2    17    19    1
     3     1     5    1
     4     3     4   ar
     5     6     3   ar
     6     8     3    1
     7    10     8    1
     8    10    11    1
     9    10     9    1
    10    11    12    1
    11    12    13    1
    12    13    14    1
    13    14     9    1
    14     7     5   ar
    15    20    21   ar
    16    22    18    1
    17    22    25   ar
    18    23    18    1
    19    23    24    1
    20    24    21    1
    21    26    19   ar
    22    17    15    2
    23    17    16    2
    24     5     6   ar
    25     7     4   ar
    26    19    20   ar
    27    21    22   ar
    28    25    26   ar
    29     1     2    1
