@<TRIPOS>MOLECULE
MolPort-007-897-027 32646904 ChemDiv-J016-0497 MCULE-8714937757 PubChem-39890410 ZINC000032646904 ZINC32646904
 28 30 0 0 0
SMALL
GASTEIGER

@<TRIPOS>ATOM
      1 C          11.4657   41.4156    5.9263 C.3     1  UNL1        0.2897
      2 C          10.0502   41.6437    6.3204 C.2     1  UNL1        0.2707
      3 N           9.7512   42.0130    7.6734 N.am    1  UNL1       -0.2809
      4 O           9.1374   41.4941    5.4649 O.2     1  UNL1       -0.2707
      5 H          10.5196   42.1711    8.2682 H       1  UNL1        0.1550
      6 C           8.4487   42.1754    8.2485 C.ar    1  UNL1        0.0502
      7 C           7.6281   43.2075    7.7777 C.ar    1  UNL1        0.0128
      8 C           6.3492   43.3952    8.3122 C.ar    1  UNL1        0.0085
      9 C           5.8904   42.5576    9.3352 C.ar    1  UNL1       -0.0018
     10 C           6.7038   41.5262    9.8128 C.ar    1  UNL1        0.0010
     11 C           7.9776   41.3349    9.2707 C.ar    1  UNL1        0.0147
     12 C           5.4943   44.5101    7.8215 C.3     1  UNL1        0.1687
     13 C           3.4104   45.2248    7.7267 C.3     1  UNL1        0.1746
     14 O           4.3096   44.5569    8.5572 O.3     1  UNL1       -0.3463
     15 O          12.3164   42.2140    6.7380 O.3     1  UNL1       -0.4641
     16 C          15.4026   40.5932    9.1004 C.ar    1  UNL1       -0.0205
     17 C          15.6638   41.6715    8.2530 C.ar    1  UNL1        0.0164
     18 C          14.6510   42.2286    7.4537 C.ar    1  UNL1        0.1005
     19 C          13.3462   41.6810    7.5214 C.ar    1  UNL1        0.1553
     20 C          13.0946   40.5990    8.3823 C.ar    1  UNL1        0.0381
     21 C          14.1141   40.0594    9.1666 C.ar    1  UNL1       -0.0011
     22 C          14.4452   43.6583    5.3967 C.ar    1  UNL1        0.2070
     23 C          15.8619   44.3233    6.8468 C.ar    1  UNL1        0.2070
     24 N          14.9706   43.3442    6.5959 N.ar    1  UNL1       -0.2660
     25 N          15.0003   44.7923    4.9307 N.ar    1  UNL1       -0.1251
     26 N          15.8795   45.2050    5.8306 N.ar    1  UNL1       -0.1251
     27 C          15.9343   39.1438   11.0336 C.3     1  UNL1        0.0050
     28 C          16.4993   40.0374    9.9446 C.3     1  UNL1        0.0264
@<TRIPOS>BOND
     1    27    28    1
     2    28    16    1
     3    17    18   ar
     4    18    24    1
     5    23    24   ar
     6    19    15    1
     7    19    20   ar
     8     1    15    1
     9     1     2    1
    10     2     3   am
    11     7     8   ar
    12    12     8    1
    13    12    14    1
    14    13    14    1
    15     9    10   ar
    16    11     6   ar
    17    21    16   ar
    18    24    22   ar
    19    25    26   ar
    20     3     6    1
    21    16    17   ar
    22    18    19   ar
    23    22    25   ar
    24    23    26   ar
    25     2     4    2
    26     6     7   ar
    27     8     9   ar
    28    10    11   ar
    29    20    21   ar
    30     3     5    1
@<TRIPOS>MOLECULE
MolPort-007-897-027 32646904 ChemDiv-J016-0497 MCULE-8714937757 PubChem-39890410 ZINC000032646904 ZINC32646904
 28 30 0 0 0
SMALL
GASTEIGER

@<TRIPOS>ATOM
      1 C          10.9987   41.4678    5.9886 C.3     1  UNL1        0.2897
      2 C           9.8665   41.8570    6.8705 C.2     1  UNL1        0.2707
      3 N           8.5728   42.0769    6.2923 N.am    1  UNL1       -0.2809
      4 O          10.0654   42.0019    8.1061 O.2     1  UNL1       -0.2707
      5 H           8.4799   41.8848    5.3312 H       1  UNL1        0.1550
      6 C           7.4011   42.5478    6.9700 C.ar    1  UNL1        0.0502
      7 C           6.6947   41.6599    7.7906 C.ar    1  UNL1        0.0128
      8 C           5.5484   42.0839    8.4708 C.ar    1  UNL1        0.0085
      9 C           5.0933   43.3986    8.3198 C.ar    1  UNL1       -0.0018
     10 C           5.7909   44.2909    7.5008 C.ar    1  UNL1        0.0010
     11 C           6.9412   43.8676    6.8295 C.ar    1  UNL1        0.0147
     12 C           4.7914   41.1257    9.3214 C.3     1  UNL1        0.1687
     13 C           4.3187   40.5373   11.3933 C.3     1  UNL1        0.1746
     14 O           5.3147   41.1257   10.6148 O.3     1  UNL1       -0.3463
     15 O          12.1781   42.1396    6.4099 O.3     1  UNL1       -0.4641
     16 C          15.0109   40.3810    8.9821 C.ar    1  UNL1       -0.0205
     17 C          15.3520   41.5085    8.2327 C.ar    1  UNL1        0.0164
     18 C          14.4248   42.1121    7.3662 C.ar    1  UNL1        0.1005
     19 C          13.1238   41.5609    7.2638 C.ar    1  UNL1        0.1553
     20 C          12.7908   40.4290    8.0273 C.ar    1  UNL1        0.0381
     21 C          13.7261   39.8436    8.8806 C.ar    1  UNL1       -0.0011
     22 C          14.2611   43.7968    5.5080 C.ar    1  UNL1        0.2070
     23 C          15.8512   44.1041    6.8970 C.ar    1  UNL1        0.2070
     24 N          14.8249   43.2775    6.6149 N.ar    1  UNL1       -0.2660
     25 N          14.9242   44.9040    5.1264 N.ar    1  UNL1       -0.1251
     26 N          15.9110   45.0947    5.9884 N.ar    1  UNL1       -0.1251
     27 C          17.3628   40.4599    9.7453 C.3     1  UNL1        0.0050
     28 C          16.0169   39.7760    9.9019 C.3     1  UNL1        0.0264
@<TRIPOS>BOND
     1    27    28    1
     2    28    16    1
     3    17    18   ar
     4    18    24    1
     5    23    24   ar
     6    19    15    1
     7    19    20   ar
     8     1    15    1
     9     1     2    1
    10     2     3   am
    11     7     8   ar
    12    12     8    1
    13    12    14    1
    14    13    14    1
    15     9    10   ar
    16    11     6   ar
    17    21    16   ar
    18    24    22   ar
    19    25    26   ar
    20     3     6    1
    21    16    17   ar
    22    18    19   ar
    23    22    25   ar
    24    23    26   ar
    25     2     4    2
    26     6     7   ar
    27     8     9   ar
    28    10    11   ar
    29    20    21   ar
    30     3     5    1
@<TRIPOS>MOLECULE
MolPort-007-897-027 32646904 ChemDiv-J016-0497 MCULE-8714937757 PubChem-39890410 ZINC000032646904 ZINC32646904
 28 30 0 0 0
SMALL
GASTEIGER

@<TRIPOS>ATOM
      1 C          11.6768   41.2644    5.8690 C.3     1  UNL1        0.2897
      2 C          10.2702   41.5326    6.2698 C.2     1  UNL1        0.2707
      3 N          10.0036   42.0625    7.5754 N.am    1  UNL1       -0.2809
      4 O           9.3368   41.2760    5.4635 O.2     1  UNL1       -0.2707
      5 H          10.7859   42.2953    8.1259 H       1  UNL1        0.1550
      6 C           8.7152   42.2880    8.1610 C.ar    1  UNL1        0.0502
      7 C           8.4583   41.7805    9.4404 C.ar    1  UNL1        0.0128
      8 C           7.2138   41.9833   10.0460 C.ar    1  UNL1        0.0085
      9 C           6.2120   42.6837    9.3648 C.ar    1  UNL1       -0.0018
     10 C           6.4590   43.1919    8.0864 C.ar    1  UNL1        0.0010
     11 C           7.7062   42.9960    7.4872 C.ar    1  UNL1        0.0147
     12 C           6.9430   41.4189   11.3961 C.3     1  UNL1        0.1687
     13 C           8.5477   41.1672   12.8874 C.3     1  UNL1        0.1746
     14 O           7.6759   42.1171   12.3564 O.3     1  UNL1       -0.3463
     15 O          12.5478   42.1111    6.6068 O.3     1  UNL1       -0.4641
     16 C          15.6087   40.6311    9.0916 C.ar    1  UNL1       -0.0205
     17 C          15.8354   41.7575    8.2984 C.ar    1  UNL1        0.0164
     18 C          14.8304   42.2691    7.4598 C.ar    1  UNL1        0.1005
     19 C          13.5688   41.6253    7.4313 C.ar    1  UNL1        0.1553
     20 C          13.3511   40.4955    8.2384 C.ar    1  UNL1        0.0381
     21 C          14.3623   40.0022    9.0630 C.ar    1  UNL1       -0.0011
     22 C          16.1012   44.3391    6.8133 C.ar    1  UNL1        0.2070
     23 C          14.4397   43.8477    5.5683 C.ar    1  UNL1        0.2070
     24 N          15.1131   43.4373    6.6610 N.ar    1  UNL1       -0.2660
     25 N          16.0311   45.2708    5.8447 N.ar    1  UNL1       -0.1251
     26 N          14.9999   44.9659    5.0720 N.ar    1  UNL1       -0.1251
     27 C          16.1541   39.0860   10.9451 C.3     1  UNL1        0.0050
     28 C          16.6945   40.1252    9.9799 C.3     1  UNL1        0.0264
@<TRIPOS>BOND
     1    27    28    1
     2    28    16    1
     3    17    18   ar
     4    18    24    1
     5    23    24   ar
     6    19    15    1
     7    19    20   ar
     8     1    15    1
     9     1     2    1
    10     2     3   am
    11     7     8   ar
    12    12     8    1
    13    12    14    1
    14    13    14    1
    15     9    10   ar
    16    11     6   ar
    17    21    16   ar
    18    24    22   ar
    19    25    26   ar
    20     3     6    1
    21    16    17   ar
    22    18    19   ar
    23    22    25   ar
    24    23    26   ar
    25     2     4    2
    26     6     7   ar
    27     8     9   ar
    28    10    11   ar
    29    20    21   ar
    30     3     5    1
@<TRIPOS>MOLECULE
MolPort-007-897-027 32646904 ChemDiv-J016-0497 MCULE-8714937757 PubChem-39890410 ZINC000032646904 ZINC32646904
 28 30 0 0 0
SMALL
GASTEIGER

@<TRIPOS>ATOM
      1 C          11.9873   42.6802    8.1527 C.3     1  UNL1        0.2897
      2 C          10.7954   41.7925    8.1027 C.2     1  UNL1        0.2707
      3 N           9.8172   41.9918    7.0732 N.am    1  UNL1       -0.2809
      4 O          10.6571   40.8919    8.9728 O.2     1  UNL1       -0.2707
      5 H          10.0238   42.6734    6.3936 H       1  UNL1        0.1550
      6 C           8.5698   41.3004    6.9322 C.ar    1  UNL1        0.0502
      7 C           7.5472   41.5611    7.8523 C.ar    1  UNL1        0.0128
      8 C           6.3148   40.9083    7.7451 C.ar    1  UNL1        0.0085
      9 C           6.1051   39.9764    6.7224 C.ar    1  UNL1       -0.0018
     10 C           7.1213   39.7084    5.8009 C.ar    1  UNL1        0.0010
     11 C           8.3485   40.3687    5.9045 C.ar    1  UNL1        0.0147
     12 C           5.2429   41.1747    8.7425 C.3     1  UNL1        0.1687
     13 C           5.3369   41.2986   10.9421 C.3     1  UNL1        0.1746
     14 O           5.7480   41.9553    9.7828 O.3     1  UNL1       -0.3463
     15 O          13.0601   42.0706    7.4474 O.3     1  UNL1       -0.4641
     16 C          16.5029   40.5705    9.3526 C.ar    1  UNL1       -0.0205
     17 C          16.5962   41.6842    8.5158 C.ar    1  UNL1        0.0164
     18 C          15.4620   42.2022    7.8675 C.ar    1  UNL1        0.1005
     19 C          14.2078   41.5781    8.0786 C.ar    1  UNL1        0.1553
     20 C          14.1260   40.4609    8.9274 C.ar    1  UNL1        0.0381
     21 C          15.2640   39.9611    9.5604 C.ar    1  UNL1       -0.0011
     22 C          14.6788   43.9628    6.2536 C.ar    1  UNL1        0.2070
     23 C          16.7299   44.0825    6.8286 C.ar    1  UNL1        0.2070
     24 N          15.6098   43.3568    7.0145 N.ar    1  UNL1       -0.2660
     25 N          15.2154   45.0234    5.6224 N.ar    1  UNL1       -0.1251
     26 N          16.4883   45.0977    5.9792 N.ar    1  UNL1       -0.1251
     27 C          17.4084   38.8024   10.8271 C.3     1  UNL1        0.0050
     28 C          17.7259   40.0575   10.0348 C.3     1  UNL1        0.0264
@<TRIPOS>BOND
     1    27    28    1
     2    28    16    1
     3    17    18   ar
     4    18    24    1
     5    23    24   ar
     6    19    15    1
     7    19    20   ar
     8     1    15    1
     9     1     2    1
    10     2     3   am
    11     7     8   ar
    12    12     8    1
    13    12    14    1
    14    13    14    1
    15     9    10   ar
    16    11     6   ar
    17    21    16   ar
    18    24    22   ar
    19    25    26   ar
    20     3     6    1
    21    16    17   ar
    22    18    19   ar
    23    22    25   ar
    24    23    26   ar
    25     2     4    2
    26     6     7   ar
    27     8     9   ar
    28    10    11   ar
    29    20    21   ar
    30     3     5    1
@<TRIPOS>MOLECULE
MolPort-007-897-027 32646904 ChemDiv-J016-0497 MCULE-8714937757 PubChem-39890410 ZINC000032646904 ZINC32646904
 28 30 0 0 0
SMALL
GASTEIGER

@<TRIPOS>ATOM
      1 C          11.6180   41.4669    6.5145 C.3     1  UNL1        0.2897
      2 C          10.6745   41.0668    7.5919 C.2     1  UNL1        0.2707
      3 N          10.2432   42.0482    8.5443 N.am    1  UNL1       -0.2809
      4 O          10.2825   39.8714    7.6594 O.2     1  UNL1       -0.2707
      5 H          10.5423   42.9736    8.3914 H       1  UNL1        0.1550
      6 C           9.4213   41.8201    9.6960 C.ar    1  UNL1        0.0502
      7 C           8.0297   41.8233    9.5421 C.ar    1  UNL1        0.0128
      8 C           7.1950   41.6011   10.6423 C.ar    1  UNL1        0.0085
      9 C           7.7512   41.3898   11.9089 C.ar    1  UNL1       -0.0018
     10 C           9.1393   41.3873   12.0722 C.ar    1  UNL1        0.0010
     11 C           9.9713   41.6003   10.9697 C.ar    1  UNL1        0.0147
     12 C           5.7169   41.6305   10.4723 C.3     1  UNL1        0.1687
     13 C           3.7617   42.0313   11.4099 C.3     1  UNL1        0.1746
     14 O           5.1010   41.7904   11.7140 O.3     1  UNL1       -0.3463
     15 O          12.6343   42.2967    7.0608 O.3     1  UNL1       -0.4641
     16 C          15.9692   40.7647    9.1258 C.ar    1  UNL1       -0.0205
     17 C          16.1152   41.8681    8.2830 C.ar    1  UNL1        0.0164
     18 C          15.0179   42.3964    7.5818 C.ar    1  UNL1        0.1005
     19 C          13.7463   41.7935    7.7451 C.ar    1  UNL1        0.1553
     20 C          13.6111   40.6866    8.6005 C.ar    1  UNL1        0.0381
     21 C          14.7132   40.1762    9.2865 C.ar    1  UNL1       -0.0011
     22 C          14.4064   44.0253    5.7678 C.ar    1  UNL1        0.2070
     23 C          16.2767   44.3756    6.7330 C.ar    1  UNL1        0.2070
     24 N          15.2197   43.5397    6.7247 N.ar    1  UNL1       -0.2660
     25 N          14.9515   45.1217    5.2094 N.ar    1  UNL1       -0.1251
     26 N          16.1122   45.3392    5.8083 N.ar    1  UNL1       -0.1251
     27 C          16.7233   39.2437   10.9254 C.3     1  UNL1        0.0050
     28 C          17.1538   40.2405    9.8647 C.3     1  UNL1        0.0264
@<TRIPOS>BOND
     1    27    28    1
     2    28    16    1
     3    17    18   ar
     4    18    24    1
     5    23    24   ar
     6    19    15    1
     7    19    20   ar
     8     1    15    1
     9     1     2    1
    10     2     3   am
    11     7     8   ar
    12    12     8    1
    13    12    14    1
    14    13    14    1
    15     9    10   ar
    16    11     6   ar
    17    21    16   ar
    18    24    22   ar
    19    25    26   ar
    20     3     6    1
    21    16    17   ar
    22    18    19   ar
    23    22    25   ar
    24    23    26   ar
    25     2     4    2
    26     6     7   ar
    27     8     9   ar
    28    10    11   ar
    29    20    21   ar
    30     3     5    1
@<TRIPOS>MOLECULE
MolPort-007-897-027 32646904 ChemDiv-J016-0497 MCULE-8714937757 PubChem-39890410 ZINC000032646904 ZINC32646904
 28 30 0 0 0
SMALL
GASTEIGER

@<TRIPOS>ATOM
      1 C          10.1314   41.0769    7.0284 C.3     1  UNL1        0.2897
      2 C          11.4153   41.5398    7.6187 C.2     1  UNL1        0.2707
      3 N          12.5821   41.6108    6.7880 N.am    1  UNL1       -0.2809
      4 O          11.4605   41.8466    8.8398 O.2     1  UNL1       -0.2707
      5 H          12.4559   41.4149    5.8315 H       1  UNL1        0.1550
      6 C          13.9129   41.9377    7.2074 C.ar    1  UNL1        0.0502
      7 C          14.5317   43.0699    6.6637 C.ar    1  UNL1        0.0128
      8 C          15.8286   43.4228    7.0511 C.ar    1  UNL1        0.0085
      9 C          16.5204   42.6323    7.9757 C.ar    1  UNL1       -0.0018
     10 C          15.9111   41.4990    8.5217 C.ar    1  UNL1        0.0010
     11 C          14.6118   41.1537    8.1401 C.ar    1  UNL1        0.0147
     12 C          16.4863   44.6144    6.4492 C.3     1  UNL1        0.1687
     13 C          14.4250   44.5116    5.6727 C.3     1  UNL1        0.1746
     14 O          15.5939   45.2683    5.5990 O.3     1  UNL1       -0.3463
     15 O           9.0946   41.2073    7.9916 O.3     1  UNL1       -0.4641
     16 C           5.9268   43.9515    7.5824 C.ar    1  UNL1       -0.0205
     17 C           6.2964   43.4942    8.8487 C.ar    1  UNL1        0.0164
     18 C           7.3489   42.5772    9.0108 C.ar    1  UNL1        0.1005
     19 C           8.0419   42.1202    7.8628 C.ar    1  UNL1        0.1553
     20 C           7.6640   42.5920    6.5941 C.ar    1  UNL1        0.0381
     21 C           6.6154   43.5012    6.4542 C.ar    1  UNL1       -0.0011
     22 C           8.8712   42.2541   10.9847 C.ar    1  UNL1        0.2070
     23 C           6.8793   41.5282   11.2248 C.ar    1  UNL1        0.2070
     24 N           7.6945   42.1365   10.3408 N.ar    1  UNL1       -0.2660
     25 N           8.7764   41.7322   12.2215 N.ar    1  UNL1       -0.1251
     26 N           7.5402   41.2817   12.3706 N.ar    1  UNL1       -0.1251
     27 C           3.6035   44.4826    8.2463 C.3     1  UNL1        0.0050
     28 C           4.8140   44.9356    7.4506 C.3     1  UNL1        0.0264
@<TRIPOS>BOND
     1    27    28    1
     2    28    16    1
     3    17    18   ar
     4    18    24    1
     5    23    24   ar
     6    19    15    1
     7    19    20   ar
     8     1    15    1
     9     1     2    1
    10     2     3   am
    11     7     8   ar
    12    12     8    1
    13    12    14    1
    14    13    14    1
    15     9    10   ar
    16    11     6   ar
    17    21    16   ar
    18    24    22   ar
    19    25    26   ar
    20     3     6    1
    21    16    17   ar
    22    18    19   ar
    23    22    25   ar
    24    23    26   ar
    25     2     4    2
    26     6     7   ar
    27     8     9   ar
    28    10    11   ar
    29    20    21   ar
    30     3     5    1
@<TRIPOS>MOLECULE
MolPort-007-897-027 32646904 ChemDiv-J016-0497 MCULE-8714937757 PubChem-39890410 ZINC000032646904 ZINC32646904
 28 30 0 0 0
SMALL
GASTEIGER

@<TRIPOS>ATOM
      1 C           9.8956   41.8875    9.5767 C.3     1  UNL1        0.2897
      2 C          10.7500   40.9828   10.3907 C.2     1  UNL1        0.2707
      3 N          11.8196   40.2704    9.7545 N.am    1  UNL1       -0.2809
      4 O          10.5111   40.8455   11.6201 O.2     1  UNL1       -0.2707
      5 H          11.9840   40.4754    8.8057 H       1  UNL1        0.1550
      6 C          12.6738   39.2907   10.3581 C.ar    1  UNL1        0.0502
      7 C          12.6398   37.9773    9.8742 C.ar    1  UNL1        0.0128
      8 C          13.4613   36.9942   10.4357 C.ar    1  UNL1        0.0085
      9 C          14.3119   37.3189   11.4985 C.ar    1  UNL1       -0.0018
     10 C          14.3505   38.6270   11.9894 C.ar    1  UNL1        0.0010
     11 C          13.5356   39.6095   11.4206 C.ar    1  UNL1        0.0147
     12 C          13.4000   35.5960    9.9301 C.3     1  UNL1        0.1687
     13 C          14.9241   35.8077    8.3506 C.3     1  UNL1        0.1746
     14 O          14.6770   35.1685    9.5649 O.3     1  UNL1       -0.3463
     15 O          10.5792   42.2321    8.3793 O.3     1  UNL1       -0.4641
     16 C          10.0586   40.1366    4.7640 C.ar    1  UNL1       -0.0205
     17 C          11.3050   40.6773    5.0854 C.ar    1  UNL1        0.0164
     18 C          11.5032   41.3821    6.2849 C.ar    1  UNL1        0.1005
     19 C          10.4134   41.5357    7.1769 C.ar    1  UNL1        0.1553
     20 C           9.1650   40.9822    6.8446 C.ar    1  UNL1        0.0381
     21 C           8.9885   40.2873    5.6482 C.ar    1  UNL1       -0.0011
     22 C          13.3634   43.0654    6.1306 C.ar    1  UNL1        0.2070
     23 C          13.7455   41.3770    7.3777 C.ar    1  UNL1        0.2070
     24 N          12.8111   41.9199    6.5727 N.ar    1  UNL1       -0.2660
     25 N          14.5965   43.2150    6.6485 N.ar    1  UNL1       -0.1251
     26 N          14.8338   42.1671    7.4224 N.ar    1  UNL1       -0.1251
     27 C           9.9402   37.8868    3.7417 C.3     1  UNL1        0.0050
     28 C           9.8896   39.3825    3.4884 C.3     1  UNL1        0.0264
@<TRIPOS>BOND
     1    27    28    1
     2    28    16    1
     3    17    18   ar
     4    18    24    1
     5    23    24   ar
     6    19    15    1
     7    19    20   ar
     8     1    15    1
     9     1     2    1
    10     2     3   am
    11     7     8   ar
    12    12     8    1
    13    12    14    1
    14    13    14    1
    15     9    10   ar
    16    11     6   ar
    17    21    16   ar
    18    24    22   ar
    19    25    26   ar
    20     3     6    1
    21    16    17   ar
    22    18    19   ar
    23    22    25   ar
    24    23    26   ar
    25     2     4    2
    26     6     7   ar
    27     8     9   ar
    28    10    11   ar
    29    20    21   ar
    30     3     5    1
@<TRIPOS>MOLECULE
MolPort-007-897-027 32646904 ChemDiv-J016-0497 MCULE-8714937757 PubChem-39890410 ZINC000032646904 ZINC32646904
 28 30 0 0 0
SMALL
GASTEIGER

@<TRIPOS>ATOM
      1 C          10.7585   40.7951    6.2044 C.3     1  UNL1        0.2897
      2 C           9.8000   40.6598    7.3331 C.2     1  UNL1        0.2707
      3 N           9.8620   41.5939    8.4195 N.am    1  UNL1       -0.2809
      4 O           8.9613   39.7198    7.3241 O.2     1  UNL1       -0.2707
      5 H          10.5013   42.3368    8.3273 H       1  UNL1        0.1550
      6 C           9.0887   41.5567    9.6255 C.ar    1  UNL1        0.0502
      7 C           7.6979   41.6927    9.5387 C.ar    1  UNL1        0.0128
      8 C           6.9095   41.6581   10.6936 C.ar    1  UNL1        0.0085
      9 C           7.5133   41.5028   11.9465 C.ar    1  UNL1       -0.0018
     10 C           8.9012   41.3687   12.0426 C.ar    1  UNL1        0.0010
     11 C           9.6859   41.3942   10.8865 C.ar    1  UNL1        0.0147
     12 C           5.4345   41.8277   10.5925 C.3     1  UNL1        0.1687
     13 C           4.0572   40.2878   11.3634 C.3     1  UNL1        0.1746
     14 O           4.8254   41.3799   11.7652 O.3     1  UNL1       -0.3463
     15 O          11.9278   40.0373    6.4842 O.3     1  UNL1       -0.4641
     16 C          13.3720   39.3852   10.3858 C.ar    1  UNL1       -0.0205
     17 C          13.7852   40.5078    9.6659 C.ar    1  UNL1        0.0164
     18 C          13.3187   40.7462    8.3619 C.ar    1  UNL1        0.1005
     19 C          12.4104   39.8273    7.7808 C.ar    1  UNL1        0.1553
     20 C          11.9978   38.7039    8.5176 C.ar    1  UNL1        0.0381
     21 C          12.4736   38.4844    9.8103 C.ar    1  UNL1       -0.0011
     22 C          15.0095   42.2027    7.2053 C.ar    1  UNL1        0.2070
     23 C          13.0253   42.9819    7.2952 C.ar    1  UNL1        0.2070
     24 N          13.7736   41.9222    7.6600 N.ar    1  UNL1       -0.2660
     25 N          15.0145   43.3967    6.5844 N.ar    1  UNL1       -0.1251
     26 N          13.7831   43.8804    6.6402 N.ar    1  UNL1       -0.1251
     27 C          15.0567   38.2173   11.7708 C.3     1  UNL1        0.0050
     28 C          13.8772   39.1727   11.7728 C.3     1  UNL1        0.0264
@<TRIPOS>BOND
     1    27    28    1
     2    28    16    1
     3    17    18   ar
     4    18    24    1
     5    23    24   ar
     6    19    15    1
     7    19    20   ar
     8     1    15    1
     9     1     2    1
    10     2     3   am
    11     7     8   ar
    12    12     8    1
    13    12    14    1
    14    13    14    1
    15     9    10   ar
    16    11     6   ar
    17    21    16   ar
    18    24    22   ar
    19    25    26   ar
    20     3     6    1
    21    16    17   ar
    22    18    19   ar
    23    22    25   ar
    24    23    26   ar
    25     2     4    2
    26     6     7   ar
    27     8     9   ar
    28    10    11   ar
    29    20    21   ar
    30     3     5    1
@<TRIPOS>MOLECULE
MolPort-007-897-027 32646904 ChemDiv-J016-0497 MCULE-8714937757 PubChem-39890410 ZINC000032646904 ZINC32646904
 28 30 0 0 0
SMALL
GASTEIGER

@<TRIPOS>ATOM
      1 C          10.5148   40.7980    6.8426 C.3     1  UNL1        0.2897
      2 C           9.4695   41.5854    7.5487 C.2     1  UNL1        0.2707
      3 N           8.1473   41.6462    6.9970 N.am    1  UNL1       -0.2809
      4 O           9.7660   42.1973    8.6093 O.2     1  UNL1       -0.2707
      5 H           7.9748   41.0933    6.2010 H       1  UNL1        0.1550
      6 C           7.0511   42.4295    7.4857 C.ar    1  UNL1        0.0502
      7 C           6.1336   41.8333    8.3593 C.ar    1  UNL1        0.0128
      8 C           5.0528   42.5668    8.8598 C.ar    1  UNL1        0.0085
      9 C           4.8759   43.9003    8.4742 C.ar    1  UNL1       -0.0018
     10 C           5.7857   44.5027    7.6006 C.ar    1  UNL1        0.0010
     11 C           6.8699   43.7706    7.1093 C.ar    1  UNL1        0.0147
     12 C           4.0700   41.9167    9.7687 C.3     1  UNL1        0.1687
     13 C           4.1602   40.3871   11.3545 C.3     1  UNL1        0.1746
     14 O           4.4476   40.5946   10.0059 O.3     1  UNL1       -0.3463
     15 O          11.6846   40.7372    7.6474 O.3     1  UNL1       -0.4641
     16 C          15.1591   42.9589    6.7959 C.ar    1  UNL1       -0.0205
     17 C          15.1461   42.0651    7.8684 C.ar    1  UNL1        0.0164
     18 C          13.9983   41.3139    8.1735 C.ar    1  UNL1        0.1005
     19 C          12.8429   41.4714    7.3690 C.ar    1  UNL1        0.1553
     20 C          12.8701   42.3702    6.2890 C.ar    1  UNL1        0.0381
     21 C          14.0190   43.1079    6.0035 C.ar    1  UNL1       -0.0011
     22 C          13.1627   40.2852   10.3093 C.ar    1  UNL1        0.2070
     23 C          14.9624   39.4510    9.5236 C.ar    1  UNL1        0.2070
     24 N          14.0358   40.4014    9.2910 N.ar    1  UNL1       -0.2660
     25 N          13.5462   39.2962   11.1375 N.ar    1  UNL1       -0.1251
     26 N          14.6632   38.7785   10.6500 N.ar    1  UNL1       -0.1251
     27 C          17.4413   43.5094    7.5760 C.3     1  UNL1        0.0050
     28 C          16.4001   43.7287    6.4936 C.3     1  UNL1        0.0264
@<TRIPOS>BOND
     1    27    28    1
     2    28    16    1
     3    17    18   ar
     4    18    24    1
     5    23    24   ar
     6    19    15    1
     7    19    20   ar
     8     1    15    1
     9     1     2    1
    10     2     3   am
    11     7     8   ar
    12    12     8    1
    13    12    14    1
    14    13    14    1
    15     9    10   ar
    16    11     6   ar
    17    21    16   ar
    18    24    22   ar
    19    25    26   ar
    20     3     6    1
    21    16    17   ar
    22    18    19   ar
    23    22    25   ar
    24    23    26   ar
    25     2     4    2
    26     6     7   ar
    27     8     9   ar
    28    10    11   ar
    29    20    21   ar
    30     3     5    1
@<TRIPOS>MOLECULE
MolPort-007-897-027 32646904 ChemDiv-J016-0497 MCULE-8714937757 PubChem-39890410 ZINC000032646904 ZINC32646904
 28 30 0 0 0
SMALL
GASTEIGER

@<TRIPOS>ATOM
      1 C          11.3460   40.2102    6.9692 C.3     1  UNL1        0.2897
      2 C          10.2569   40.7114    7.8488 C.2     1  UNL1        0.2707
      3 N           8.9790   41.0180    7.2748 N.am    1  UNL1       -0.2809
      4 O          10.4788   40.8728    9.0784 O.2     1  UNL1       -0.2707
      5 H           8.8618   40.8083    6.3201 H       1  UNL1        0.1550
      6 C           7.8550   41.5983    7.9484 C.ar    1  UNL1        0.0502
      7 C           7.2430   42.7264    7.3889 C.ar    1  UNL1        0.0128
      8 C           6.1416   43.3186    8.0156 C.ar    1  UNL1        0.0085
      9 C           5.6561   42.7919    9.2178 C.ar    1  UNL1       -0.0018
     10 C           6.2624   41.6674    9.7846 C.ar    1  UNL1        0.0010
     11 C           7.3569   41.0719    9.1517 C.ar    1  UNL1        0.0147
     12 C           5.5134   44.5316    7.4253 C.3     1  UNL1        0.1687
     13 C           3.4051   44.8006    8.0129 C.3     1  UNL1        0.1746
     14 O           4.7040   45.1552    8.3754 O.3     1  UNL1       -0.3463
     15 O          12.5842   40.2818    7.6631 O.3     1  UNL1       -0.4641
     16 C          15.3915   43.3521    7.0106 C.ar    1  UNL1       -0.0205
     17 C          15.5737   42.4497    8.0602 C.ar    1  UNL1        0.0164
     18 C          14.6500   41.4179    8.2992 C.ar    1  UNL1        0.1005
     19 C          13.5216   41.2989    7.4509 C.ar    1  UNL1        0.1553
     20 C          13.3520   42.2102    6.3946 C.ar    1  UNL1        0.0381
     21 C          14.2797   43.2285    6.1749 C.ar    1  UNL1       -0.0011
     22 C          14.0341   40.1309   10.3685 C.ar    1  UNL1        0.2070
     23 C          16.0198   39.8288    9.6487 C.ar    1  UNL1        0.2070
     24 N          14.8843   40.5089    9.3953 N.ar    1  UNL1       -0.2660
     25 N          14.6334   39.2495   11.1902 N.ar    1  UNL1       -0.1251
     26 N          15.8657   39.0620   10.7436 N.ar    1  UNL1       -0.1251
     27 C          17.5424   43.9095    5.9228 C.3     1  UNL1        0.0050
     28 C          16.4003   44.4258    6.7789 C.3     1  UNL1        0.0264
@<TRIPOS>BOND
     1    27    28    1
     2    28    16    1
     3    17    18   ar
     4    18    24    1
     5    23    24   ar
     6    19    15    1
     7    19    20   ar
     8     1    15    1
     9     1     2    1
    10     2     3   am
    11     7     8   ar
    12    12     8    1
    13    12    14    1
    14    13    14    1
    15     9    10   ar
    16    11     6   ar
    17    21    16   ar
    18    24    22   ar
    19    25    26   ar
    20     3     6    1
    21    16    17   ar
    22    18    19   ar
    23    22    25   ar
    24    23    26   ar
    25     2     4    2
    26     6     7   ar
    27     8     9   ar
    28    10    11   ar
    29    20    21   ar
    30     3     5    1
