@<TRIPOS>MOLECULE
MolPort-006-579-808 ChemDiv-V011-7223 MCULE-1721688843 PubChem-46040772 ZINC37544022
 31 33 0 0 0
SMALL
GASTEIGER

@<TRIPOS>ATOM
      1 C          11.3257   40.0654    5.8575 C.3     1  UNL1        0.0971
      2 C          10.3122   40.8374    5.0197 C.3     1  UNL1        0.0435
      3 C           8.9291   40.6407    5.6191 C.3     1  UNL1        0.1015
      4 C          10.0088   40.9095    7.8398 C.2     1  UNL1        0.3112
      5 O           9.9143   41.0820    9.0861 O.2     1  UNL1       -0.2520
      6 N          11.2431   40.4326    7.2722 N.am    1  UNL1       -0.2596
      7 N           8.8912   41.1936    6.9727 N.am    1  UNL1       -0.2430
      8 C           7.7785   42.0263    7.3676 C.ar    1  UNL1        0.0565
      9 C           7.3935   43.1180    6.5720 C.ar    1  UNL1        0.0150
     10 C           6.3291   43.9378    6.9535 C.ar    1  UNL1        0.0026
     11 C           5.6390   43.6778    8.1387 C.ar    1  UNL1        0.0148
     12 C           6.0102   42.5980    8.9516 C.ar    1  UNL1        0.0515
     13 C           7.0777   41.7837    8.5611 C.ar    1  UNL1        0.0296
     14 C           3.9102   42.3380   10.4029 C.2     1  UNL1        0.2256
     15 O           3.1134   42.6565    9.4811 O.2     1  UNL1       -0.2748
     16 N           5.3275   42.2992   10.1767 N.am    1  UNL1       -0.2839
     17 H           5.8893   42.0405   10.9426 H       1  UNL1        0.1549
     18 C           3.3597   41.9917   11.7462 C.3     1  UNL1        0.0768
     19 C           1.8628   42.2305   11.7831 C.3     1  UNL1        0.0096
     20 C           3.6601   40.5451   12.0877 C.3     1  UNL1        0.0096
     21 C          12.3780   40.1165    8.1315 C.3     1  UNL1        0.1219
     22 C          15.7947   41.7529    8.2837 C.ar    1  UNL1        0.1415
     23 C          15.5846   42.8849    7.4798 C.ar    1  UNL1        0.0737
     24 C          14.3345   43.1142    6.8829 C.ar    1  UNL1        0.1415
     25 C          13.2960   42.2028    7.0950 C.ar    1  UNL1        0.0345
     26 C          13.4995   41.0708    7.8903 C.ar    1  UNL1        0.0037
     27 C          14.7455   40.8511    8.4859 C.ar    1  UNL1        0.0345
     28 C          17.2706   40.3541    9.6914 C.3     1  UNL1        0.2525
     29 O          17.0286   41.5027    8.8904 O.3     1  UNL1       -0.4713
     30 C          15.1086   45.1859    5.7757 C.3     1  UNL1        0.2525
     31 O          14.0988   44.2335    6.0801 O.3     1  UNL1       -0.4713
@<TRIPOS>BOND
     1    28    29    1
     2    22    29    1
     3    23    24   ar
     4    24    31    1
     5    30    31    1
     6    25    26   ar
     7    21    26    1
     8    21     6    1
     9     1     6    1
    10     1     2    1
    11     2     3    1
    12     3     7    1
    13     4     6   am
    14     9    10   ar
    15    11    12   ar
    16    12    16    1
    17    18    14    1
    18    18    19    1
    19    18    20    1
    20    13     8   ar
    21    27    22   ar
    22     7     4   am
    23     7     8    1
    24    16    14   am
    25    22    23   ar
    26    24    25   ar
    27    26    27   ar
    28     4     5    2
    29     8     9   ar
    30    10    11   ar
    31    12    13   ar
    32    14    15    2
    33    16    17    1
@<TRIPOS>MOLECULE
MolPort-006-579-808 ChemDiv-V011-7223 MCULE-1721688843 PubChem-46040772 ZINC37544022
 31 33 0 0 0
SMALL
GASTEIGER

@<TRIPOS>ATOM
      1 C           8.4307   40.8842    8.7410 C.3     1  UNL1        0.0971
      2 C           9.3042   39.9978    7.8600 C.3     1  UNL1        0.0435
      3 C          10.6910   40.6135    7.7668 C.3     1  UNL1        0.1015
      4 C          10.4846   41.0966   10.1944 C.2     1  UNL1        0.3112
      5 O          11.0100   41.4491   11.2861 O.2     1  UNL1       -0.2520
      6 N           9.0529   41.1255   10.0440 N.am    1  UNL1       -0.2596
      7 N          11.3059   40.6557    9.0932 N.am    1  UNL1       -0.2430
      8 C          12.6733   40.2184    9.2551 C.ar    1  UNL1        0.0565
      9 C          12.9553   38.9908    9.8770 C.ar    1  UNL1        0.0150
     10 C          14.2745   38.5669   10.0519 C.ar    1  UNL1        0.0026
     11 C          15.3287   39.3682    9.6102 C.ar    1  UNL1        0.0148
     12 C          15.0709   40.6000    8.9931 C.ar    1  UNL1        0.0515
     13 C          13.7467   41.0158    8.8234 C.ar    1  UNL1        0.0296
     14 C          16.0258   42.4758    7.5257 C.2     1  UNL1        0.2256
     15 O          14.9327   42.7149    6.9478 O.2     1  UNL1       -0.2748
     16 N          16.1260   41.4521    8.5274 N.am    1  UNL1       -0.2839
     17 H          17.0115   41.3216    8.9374 H       1  UNL1        0.1549
     18 C          17.2282   43.2802    7.1586 C.3     1  UNL1        0.0768
     19 C          16.8388   44.4322    6.2530 C.3     1  UNL1        0.0096
     20 C          17.9136   43.8109    8.4029 C.3     1  UNL1        0.0096
     21 C           8.2045   41.5899   11.1352 C.3     1  UNL1        0.1219
     22 C           4.4362   41.8415   10.8015 C.ar    1  UNL1        0.1415
     23 C           4.3226   42.6232    9.6406 C.ar    1  UNL1        0.0737
     24 C           5.4702   43.0742    8.9687 C.ar    1  UNL1        0.1415
     25 C           6.7324   42.7383    9.4666 C.ar    1  UNL1        0.0345
     26 C           6.8532   41.9644   10.6250 C.ar    1  UNL1        0.0037
     27 C           5.7061   41.5143   11.2864 C.ar    1  UNL1        0.0345
     28 C           2.2696   42.2424   11.9246 C.3     1  UNL1        0.2525
     29 O           3.3099   41.3788   11.4875 O.3     1  UNL1       -0.4713
     30 C           6.4098   43.8789    6.8271 C.3     1  UNL1        0.2525
     31 O           5.3846   43.8518    7.8107 O.3     1  UNL1       -0.4713
@<TRIPOS>BOND
     1    28    29    1
     2    22    29    1
     3    23    24   ar
     4    24    31    1
     5    30    31    1
     6    25    26   ar
     7    21    26    1
     8    21     6    1
     9     1     6    1
    10     1     2    1
    11     2     3    1
    12     3     7    1
    13     4     6   am
    14     9    10   ar
    15    11    12   ar
    16    12    16    1
    17    18    14    1
    18    18    19    1
    19    18    20    1
    20    13     8   ar
    21    27    22   ar
    22     7     4   am
    23     7     8    1
    24    16    14   am
    25    22    23   ar
    26    24    25   ar
    27    26    27   ar
    28     4     5    2
    29     8     9   ar
    30    10    11   ar
    31    12    13   ar
    32    14    15    2
    33    16    17    1
@<TRIPOS>MOLECULE
MolPort-006-579-808 ChemDiv-V011-7223 MCULE-1721688843 PubChem-46040772 ZINC37544022
 31 33 0 0 0
SMALL
GASTEIGER

@<TRIPOS>ATOM
      1 C          11.4397   40.2706    6.1441 C.3     1  UNL1        0.0971
      2 C          10.0961   39.6927    6.5748 C.3     1  UNL1        0.0435
      3 C          10.1074   39.4962    8.0823 C.3     1  UNL1        0.1015
      4 C          11.2483   41.6983    8.2180 C.2     1  UNL1        0.3112
      5 O          11.6531   42.6780    8.9025 O.2     1  UNL1       -0.2520
      6 N          11.7646   41.4873    6.8906 N.am    1  UNL1       -0.2596
      7 N          10.2637   40.7879    8.7503 N.am    1  UNL1       -0.2430
      8 C           9.4100   41.1157    9.8688 C.ar    1  UNL1        0.0565
      9 C           9.8864   40.9896   11.1843 C.ar    1  UNL1        0.0150
     10 C           9.0634   41.2892   12.2721 C.ar    1  UNL1        0.0026
     11 C           7.7514   41.7150   12.0574 C.ar    1  UNL1        0.0148
     12 C           7.2528   41.8414   10.7536 C.ar    1  UNL1        0.0515
     13 C           8.0845   41.5383    9.6712 C.ar    1  UNL1        0.0296
     14 C           4.7009   41.6078   10.8837 C.2     1  UNL1        0.2256
     15 O           4.7337   40.5265   11.5285 O.2     1  UNL1       -0.2748
     16 N           5.9109   42.2739   10.4918 N.am    1  UNL1       -0.2839
     17 H           5.8087   43.1154    9.9911 H       1  UNL1        0.1549
     18 C           3.3765   42.1994   10.5322 C.3     1  UNL1        0.0768
     19 C           2.7651   41.4672    9.3536 C.3     1  UNL1        0.0096
     20 C           2.4357   42.1418   11.7201 C.3     1  UNL1        0.0096
     21 C          12.7775   42.3808    6.3411 C.3     1  UNL1        0.1219
     22 C          16.3789   42.8789    7.4166 C.ar    1  UNL1        0.1415
     23 C          16.4965   41.9007    8.4172 C.ar    1  UNL1        0.0737
     24 C          15.4040   41.0826    8.7473 C.ar    1  UNL1        0.1415
     25 C          14.1927   41.2502    8.0700 C.ar    1  UNL1        0.0345
     26 C          14.0669   42.2257    7.0760 C.ar    1  UNL1        0.0037
     27 C          15.1604   43.0337    6.7488 C.ar    1  UNL1        0.0345
     28 C          17.8014   43.9784    5.7184 C.3     1  UNL1        0.2525
     29 O          17.4514   43.7045    7.0681 O.3     1  UNL1       -0.4713
     30 C          14.3856   39.7085   10.5338 C.3     1  UNL1        0.2525
     31 O          15.4952   40.1008    9.7376 O.3     1  UNL1       -0.4713
@<TRIPOS>BOND
     1    28    29    1
     2    22    29    1
     3    23    24   ar
     4    24    31    1
     5    30    31    1
     6    25    26   ar
     7    21    26    1
     8    21     6    1
     9     1     6    1
    10     1     2    1
    11     2     3    1
    12     3     7    1
    13     4     6   am
    14     9    10   ar
    15    11    12   ar
    16    12    16    1
    17    18    14    1
    18    18    19    1
    19    18    20    1
    20    13     8   ar
    21    27    22   ar
    22     7     4   am
    23     7     8    1
    24    16    14   am
    25    22    23   ar
    26    24    25   ar
    27    26    27   ar
    28     4     5    2
    29     8     9   ar
    30    10    11   ar
    31    12    13   ar
    32    14    15    2
    33    16    17    1
@<TRIPOS>MOLECULE
MolPort-006-579-808 ChemDiv-V011-7223 MCULE-1721688843 PubChem-46040772 ZINC37544022
 31 33 0 0 0
SMALL
GASTEIGER

@<TRIPOS>ATOM
      1 C          10.9697   41.1925    6.4430 C.3     1  UNL1        0.0971
      2 C          12.1191   41.5538    5.5085 C.3     1  UNL1        0.0435
      3 C          12.9448   42.6571    6.1503 C.3     1  UNL1        0.1015
      4 C          12.6810   41.4169    8.2861 C.2     1  UNL1        0.3112
      5 O          13.0085   41.2357    9.4911 O.2     1  UNL1       -0.2520
      6 N          11.4532   40.8574    7.7836 N.am    1  UNL1       -0.2596
      7 N          13.5310   42.1753    7.4007 N.am    1  UNL1       -0.2430
      8 C          14.9259   42.4326    7.6754 C.ar    1  UNL1        0.0565
      9 C          15.5316   43.6142    7.2170 C.ar    1  UNL1        0.0150
     10 C          16.8832   43.8645    7.4643 C.ar    1  UNL1        0.0026
     11 C          17.6470   42.9333    8.1699 C.ar    1  UNL1        0.0148
     12 C          17.0651   41.7443    8.6309 C.ar    1  UNL1        0.0515
     13 C          15.7113   41.5028    8.3775 C.ar    1  UNL1        0.0296
     14 C          17.2915   39.7555   10.2362 C.2     1  UNL1        0.2256
     15 O          16.0534   39.6551   10.4438 O.2     1  UNL1       -0.2748
     16 N          17.8162   40.7626    9.3576 N.am    1  UNL1       -0.2839
     17 H          18.7937   40.7811    9.2420 H       1  UNL1        0.1549
     18 C          18.2176   38.8028   10.9159 C.3     1  UNL1        0.0768
     19 C          17.5779   37.4330   11.0312 C.3     1  UNL1        0.0096
     20 C          19.5260   38.6991   10.1563 C.3     1  UNL1        0.0096
     21 C          10.5671   40.1076    8.6661 C.3     1  UNL1        0.1219
     22 C           8.2587   41.8024   11.1508 C.ar    1  UNL1        0.1415
     23 C           7.5178   42.6382   10.2998 C.ar    1  UNL1        0.0737
     24 C           7.7717   42.6561    8.9189 C.ar    1  UNL1        0.1415
     25 C           8.7725   41.8327    8.3951 C.ar    1  UNL1        0.0345
     26 C           9.5177   41.0015    9.2373 C.ar    1  UNL1        0.0037
     27 C           9.2563   40.9849   10.6110 C.ar    1  UNL1        0.0345
     28 C           8.9625   41.2285   13.4512 C.3     1  UNL1        0.2525
     29 O           8.0245   41.7646   12.5281 O.3     1  UNL1       -0.4713
     30 C           6.9316   43.2096    6.6594 C.3     1  UNL1        0.2525
     31 O           7.0476   43.4772    8.0502 O.3     1  UNL1       -0.4713
@<TRIPOS>BOND
     1    28    29    1
     2    22    29    1
     3    23    24   ar
     4    24    31    1
     5    30    31    1
     6    25    26   ar
     7    21    26    1
     8    21     6    1
     9     1     6    1
    10     1     2    1
    11     2     3    1
    12     3     7    1
    13     4     6   am
    14     9    10   ar
    15    11    12   ar
    16    12    16    1
    17    18    14    1
    18    18    19    1
    19    18    20    1
    20    13     8   ar
    21    27    22   ar
    22     7     4   am
    23     7     8    1
    24    16    14   am
    25    22    23   ar
    26    24    25   ar
    27    26    27   ar
    28     4     5    2
    29     8     9   ar
    30    10    11   ar
    31    12    13   ar
    32    14    15    2
    33    16    17    1
@<TRIPOS>MOLECULE
MolPort-006-579-808 ChemDiv-V011-7223 MCULE-1721688843 PubChem-46040772 ZINC37544022
 31 33 0 0 0
SMALL
GASTEIGER

@<TRIPOS>ATOM
      1 C          11.5619   42.2418    9.5968 C.3     1  UNL1        0.0971
      2 C          10.4419   42.6780   10.5349 C.3     1  UNL1        0.0435
      3 C           9.5747   43.7021    9.8206 C.3     1  UNL1        0.1015
      4 C           9.7803   42.2620    7.8074 C.2     1  UNL1        0.3112
      5 O           9.4118   41.9592    6.6392 O.2     1  UNL1       -0.2520
      6 N          11.0350   41.7705    8.3148 N.am    1  UNL1       -0.2596
      7 N           8.9510   43.0924    8.6465 N.am    1  UNL1       -0.2430
      8 C           7.5428   43.3033    8.4017 C.ar    1  UNL1        0.0565
      9 C           7.1230   44.0993    7.3231 C.ar    1  UNL1        0.0150
     10 C           5.7644   44.3216    7.0878 C.ar    1  UNL1        0.0026
     11 C           4.8086   43.7534    7.9316 C.ar    1  UNL1        0.0148
     12 C           5.2049   42.9613    9.0180 C.ar    1  UNL1        0.0515
     13 C           6.5675   42.7454    9.2455 C.ar    1  UNL1        0.0296
     14 C           4.5218   41.8043   11.2040 C.2     1  UNL1        0.2256
     15 O           5.6865   41.8031   11.6829 O.2     1  UNL1       -0.2748
     16 N           4.2540   42.3618    9.9082 N.am    1  UNL1       -0.2839
     17 H           3.3200   42.3291    9.5986 H       1  UNL1        0.1549
     18 C           3.4092   41.2188   12.0083 C.3     1  UNL1        0.0768
     19 C           2.1299   42.0039   11.7935 C.3     1  UNL1        0.0096
     20 C           3.1912   39.7650   11.6361 C.3     1  UNL1        0.0096
     21 C          11.9004   40.9494    7.4763 C.3     1  UNL1        0.1219
     22 C          15.4718   40.9108    8.7486 C.ar    1  UNL1        0.1415
     23 C          15.9976   42.0412    8.1026 C.ar    1  UNL1        0.0737
     24 C          15.1939   42.8133    7.2484 C.ar    1  UNL1        0.1415
     25 C          13.8606   42.4465    7.0444 C.ar    1  UNL1        0.0345
     26 C          13.3316   41.3191    7.6805 C.ar    1  UNL1        0.0037
     27 C          14.1362   40.5574    8.5338 C.ar    1  UNL1        0.0345
     28 C          15.6887   39.3399   10.6465 C.3     1  UNL1        0.2525
     29 O          16.2499   40.1267    9.6048 O.3     1  UNL1       -0.4713
     30 C          16.9030   43.9287    5.8512 C.3     1  UNL1        0.2525
     31 O          15.6922   43.9437    6.5950 O.3     1  UNL1       -0.4713
@<TRIPOS>BOND
     1    28    29    1
     2    22    29    1
     3    23    24   ar
     4    24    31    1
     5    30    31    1
     6    25    26   ar
     7    21    26    1
     8    21     6    1
     9     1     6    1
    10     1     2    1
    11     2     3    1
    12     3     7    1
    13     4     6   am
    14     9    10   ar
    15    11    12   ar
    16    12    16    1
    17    18    14    1
    18    18    19    1
    19    18    20    1
    20    13     8   ar
    21    27    22   ar
    22     7     4   am
    23     7     8    1
    24    16    14   am
    25    22    23   ar
    26    24    25   ar
    27    26    27   ar
    28     4     5    2
    29     8     9   ar
    30    10    11   ar
    31    12    13   ar
    32    14    15    2
    33    16    17    1
@<TRIPOS>MOLECULE
MolPort-006-579-808 ChemDiv-V011-7223 MCULE-1721688843 PubChem-46040772 ZINC37544022
 31 33 0 0 0
SMALL
GASTEIGER

@<TRIPOS>ATOM
      1 C           8.3604   40.2906    6.3528 C.3     1  UNL1        0.0971
      2 C           9.3042   39.0939    6.3976 C.3     1  UNL1        0.0435
      3 C          10.7275   39.5835    6.1839 C.3     1  UNL1        0.1015
      4 C          10.1491   41.4789    7.6813 C.2     1  UNL1        0.3112
      5 O          10.5064   42.4680    8.3785 O.2     1  UNL1       -0.2520
      6 N           8.7692   41.3320    7.2970 N.am    1  UNL1       -0.2596
      7 N          11.1107   40.4853    7.2699 N.am    1  UNL1       -0.2430
      8 C          12.3961   40.3200    7.9085 C.ar    1  UNL1        0.0565
      9 C          12.6309   39.2231    8.7541 C.ar    1  UNL1        0.0150
     10 C          13.8650   39.0633    9.3881 C.ar    1  UNL1        0.0026
     11 C          14.8788   40.0016    9.1872 C.ar    1  UNL1        0.0148
     12 C          14.6644   41.1075    8.3530 C.ar    1  UNL1        0.0515
     13 C          13.4250   41.2589    7.7235 C.ar    1  UNL1        0.0296
     14 C          15.7035   43.0745    7.0744 C.2     1  UNL1        0.2256
     15 O          14.7735   43.1441    6.2281 O.2     1  UNL1       -0.2748
     16 N          15.6795   42.0937    8.1227 N.am    1  UNL1       -0.2839
     17 H          16.4394   42.0988    8.7487 H       1  UNL1        0.1549
     18 C          16.8407   44.0363    6.9790 C.3     1  UNL1        0.0768
     19 C          17.7879   43.8548    8.1490 C.3     1  UNL1        0.0096
     20 C          17.5900   43.8467    5.6743 C.3     1  UNL1        0.0096
     21 C           7.7842   42.3361    7.6814 C.3     1  UNL1        0.1219
     22 C           5.1230   41.0593   10.0610 C.ar    1  UNL1        0.1415
     23 C           5.7677   41.2267   11.2972 C.ar    1  UNL1        0.0737
     24 C           7.0697   41.7489   11.3581 C.ar    1  UNL1        0.1415
     25 C           7.7228   42.1020   10.1737 C.ar    1  UNL1        0.0345
     26 C           7.0889   41.9333    8.9387 C.ar    1  UNL1        0.0037
     27 C           5.7902   41.4174    8.8856 C.ar    1  UNL1        0.0345
     28 C           2.7572   41.2563    9.3678 C.3     1  UNL1        0.2525
     29 O           3.8271   40.5435    9.9733 O.3     1  UNL1       -0.4713
     30 C           8.8110   41.0997   12.9901 C.3     1  UNL1        0.2525
     31 O           7.7328   41.9271   12.5753 O.3     1  UNL1       -0.4713
@<TRIPOS>BOND
     1    28    29    1
     2    22    29    1
     3    23    24   ar
     4    24    31    1
     5    30    31    1
     6    25    26   ar
     7    21    26    1
     8    21     6    1
     9     1     6    1
    10     1     2    1
    11     2     3    1
    12     3     7    1
    13     4     6   am
    14     9    10   ar
    15    11    12   ar
    16    12    16    1
    17    18    14    1
    18    18    19    1
    19    18    20    1
    20    13     8   ar
    21    27    22   ar
    22     7     4   am
    23     7     8    1
    24    16    14   am
    25    22    23   ar
    26    24    25   ar
    27    26    27   ar
    28     4     5    2
    29     8     9   ar
    30    10    11   ar
    31    12    13   ar
    32    14    15    2
    33    16    17    1
@<TRIPOS>MOLECULE
MolPort-006-579-808 ChemDiv-V011-7223 MCULE-1721688843 PubChem-46040772 ZINC37544022
 31 33 0 0 0
SMALL
GASTEIGER

@<TRIPOS>ATOM
      1 C           8.3878   41.8062   10.3544 C.3     1  UNL1        0.0971
      2 C           9.5574   42.1492   11.2705 C.3     1  UNL1        0.0435
      3 C          10.5231   40.9753   11.2934 C.3     1  UNL1        0.1015
      4 C          10.1437   40.7988    8.8450 C.2     1  UNL1        0.3112
      5 O          10.4660   40.3232    7.7216 O.2     1  UNL1       -0.2520
      6 N           8.8483   41.4009    9.0251 N.am    1  UNL1       -0.2596
      7 N          11.0659   40.7525    9.9535 N.am    1  UNL1       -0.2430
      8 C          12.4862   40.5445    9.7895 C.ar    1  UNL1        0.0565
      9 C          13.1629   39.6122   10.5933 C.ar    1  UNL1        0.0150
     10 C          14.5384   39.4154   10.4526 C.ar    1  UNL1        0.0026
     11 C          15.2552   40.1524    9.5083 C.ar    1  UNL1        0.0148
     12 C          14.6017   41.0930    8.7001 C.ar    1  UNL1        0.0515
     13 C          13.2245   41.2831    8.8493 C.ar    1  UNL1        0.0296
     14 C          14.7868   42.9858    6.9777 C.2     1  UNL1        0.2256
     15 O          13.6053   43.3878    7.1458 O.2     1  UNL1       -0.2748
     16 N          15.3028   41.8705    7.7203 N.am    1  UNL1       -0.2839
     17 H          16.2352   41.6126    7.5376 H       1  UNL1        0.1549
     18 C          15.6568   43.6919    5.9918 C.3     1  UNL1        0.0768
     19 C          15.0906   45.0612    5.6706 C.3     1  UNL1        0.0096
     20 C          17.0677   43.8302    6.5304 C.3     1  UNL1        0.0096
     21 C           7.8912   41.4376    7.9257 C.3     1  UNL1        0.1219
     22 C           4.4487   41.4146    9.5144 C.ar    1  UNL1        0.1415
     23 C           4.0330   42.7333    9.2697 C.ar    1  UNL1        0.0737
     24 C           4.8731   43.6327    8.5937 C.ar    1  UNL1        0.1415
     25 C           6.1325   43.2040    8.1646 C.ar    1  UNL1        0.0345
     26 C           6.5552   41.8936    8.4092 C.ar    1  UNL1        0.0037
     27 C           5.7114   41.0017    9.0787 C.ar    1  UNL1        0.0345
     28 C           3.8671   40.0988   11.5260 C.3     1  UNL1        0.2525
     29 O           3.6310   40.4997   10.1834 O.3     1  UNL1       -0.4713
     30 C           3.3272   45.2724    7.5746 C.3     1  UNL1        0.2525
     31 O           4.4827   44.9496    8.3360 O.3     1  UNL1       -0.4713
@<TRIPOS>BOND
     1    28    29    1
     2    22    29    1
     3    23    24   ar
     4    24    31    1
     5    30    31    1
     6    25    26   ar
     7    21    26    1
     8    21     6    1
     9     1     6    1
    10     1     2    1
    11     2     3    1
    12     3     7    1
    13     4     6   am
    14     9    10   ar
    15    11    12   ar
    16    12    16    1
    17    18    14    1
    18    18    19    1
    19    18    20    1
    20    13     8   ar
    21    27    22   ar
    22     7     4   am
    23     7     8    1
    24    16    14   am
    25    22    23   ar
    26    24    25   ar
    27    26    27   ar
    28     4     5    2
    29     8     9   ar
    30    10    11   ar
    31    12    13   ar
    32    14    15    2
    33    16    17    1
@<TRIPOS>MOLECULE
MolPort-006-579-808 ChemDiv-V011-7223 MCULE-1721688843 PubChem-46040772 ZINC37544022
 31 33 0 0 0
SMALL
GASTEIGER

@<TRIPOS>ATOM
      1 C          12.6519   39.2505    8.0267 C.3     1  UNL1        0.0971
      2 C          11.4361   38.5360    8.6065 C.3     1  UNL1        0.0435
      3 C          11.1506   39.0978    9.9900 C.3     1  UNL1        0.1015
      4 C          11.6358   41.3349    9.0261 C.2     1  UNL1        0.3112
      5 O          11.6119   42.5930    9.1203 O.2     1  UNL1       -0.2520
      6 N          12.4789   40.7041    8.0441 N.am    1  UNL1       -0.2596
      7 N          10.8181   40.5186    9.8901 N.am    1  UNL1       -0.2430
      8 C           9.6763   41.0320   10.6112 C.ar    1  UNL1        0.0565
      9 C           9.7208   41.1603   12.0094 C.ar    1  UNL1        0.0150
     10 C           8.6165   41.6409   12.7165 C.ar    1  UNL1        0.0026
     11 C           7.4518   41.9955   12.0336 C.ar    1  UNL1        0.0148
     12 C           7.3826   41.8694   10.6393 C.ar    1  UNL1        0.0515
     13 C           8.4934   41.3864    9.9407 C.ar    1  UNL1        0.0296
     14 C           6.0646   43.3041    8.9696 C.2     1  UNL1        0.2256
     15 O           7.0304   44.0712    8.7150 O.2     1  UNL1       -0.2748
     16 N           6.2042   42.2213    9.9021 N.am    1  UNL1       -0.2839
     17 H           5.4077   41.6621   10.0508 H       1  UNL1        0.1549
     18 C           4.7605   43.5311    8.2801 C.3     1  UNL1        0.0768
     19 C           3.6066   43.2319    9.2171 C.3     1  UNL1        0.0096
     20 C           4.6635   44.9601    7.7819 C.3     1  UNL1        0.0096
     21 C          13.3314   41.5080    7.1762 C.3     1  UNL1        0.1219
     22 C          16.8495   42.7650    7.8230 C.ar    1  UNL1        0.1415
     23 C          17.2614   41.8924    8.8431 C.ar    1  UNL1        0.0737
     24 C          16.3944   40.8989    9.3258 C.ar    1  UNL1        0.1415
     25 C          15.1120   40.7846    8.7813 C.ar    1  UNL1        0.0345
     26 C          14.6932   41.6534    7.7687 C.ar    1  UNL1        0.0037
     27 C          15.5636   42.6374    7.2892 C.ar    1  UNL1        0.0345
     28 C          17.6708   44.1757    5.9651 C.3     1  UNL1        0.2525
     29 O          17.6936   43.7608    7.3240 O.3     1  UNL1       -0.4713
     30 C          15.9036   39.0380   10.8792 C.3     1  UNL1        0.2525
     31 O          16.7804   40.0170   10.3388 O.3     1  UNL1       -0.4713
@<TRIPOS>BOND
     1    28    29    1
     2    22    29    1
     3    23    24   ar
     4    24    31    1
     5    30    31    1
     6    25    26   ar
     7    21    26    1
     8    21     6    1
     9     1     6    1
    10     1     2    1
    11     2     3    1
    12     3     7    1
    13     4     6   am
    14     9    10   ar
    15    11    12   ar
    16    12    16    1
    17    18    14    1
    18    18    19    1
    19    18    20    1
    20    13     8   ar
    21    27    22   ar
    22     7     4   am
    23     7     8    1
    24    16    14   am
    25    22    23   ar
    26    24    25   ar
    27    26    27   ar
    28     4     5    2
    29     8     9   ar
    30    10    11   ar
    31    12    13   ar
    32    14    15    2
    33    16    17    1
@<TRIPOS>MOLECULE
MolPort-006-579-808 ChemDiv-V011-7223 MCULE-1721688843 PubChem-46040772 ZINC37544022
 31 33 0 0 0
SMALL
GASTEIGER

@<TRIPOS>ATOM
      1 C           8.4811   40.3703    6.3672 C.3     1  UNL1        0.0971
      2 C           9.4332   39.1816    6.4400 C.3     1  UNL1        0.0435
      3 C          10.8562   39.6804    6.2470 C.3     1  UNL1        0.1015
      4 C          10.2366   41.5850    7.7160 C.2     1  UNL1        0.3112
      5 O          10.5737   42.5833    8.4101 O.2     1  UNL1       -0.2520
      6 N           8.8650   41.4237    7.3087 N.am    1  UNL1       -0.2596
      7 N          11.2131   40.5953    7.3310 N.am    1  UNL1       -0.2430
      8 C          12.4881   40.4460    7.9940 C.ar    1  UNL1        0.0565
      9 C          12.6737   39.4366    8.9531 C.ar    1  UNL1        0.0150
     10 C          13.8978   39.2945    9.6104 C.ar    1  UNL1        0.0026
     11 C          14.9506   40.1635    9.3191 C.ar    1  UNL1        0.0148
     12 C          14.7857   41.1822    8.3705 C.ar    1  UNL1        0.0515
     13 C          13.5561   41.3166    7.7185 C.ar    1  UNL1        0.0296
     14 C          15.7359   43.2832    7.2451 C.2     1  UNL1        0.2256
     15 O          14.6356   43.6310    6.7408 O.2     1  UNL1       -0.2748
     16 N          15.8421   42.0955    8.0449 N.am    1  UNL1       -0.2839
     17 H          16.7331   41.8863    8.4075 H       1  UNL1        0.1549
     18 C          16.9408   44.1307    7.0050 C.3     1  UNL1        0.0768
     19 C          17.9870   43.8790    8.0732 C.3     1  UNL1        0.0096
     20 C          17.5248   43.8493    5.6341 C.3     1  UNL1        0.0096
     21 C           7.8656   42.4235    7.6660 C.3     1  UNL1        0.1219
     22 C           7.1879   41.8540   11.3527 C.ar    1  UNL1        0.1415
     23 C           5.9039   41.2878   11.3038 C.ar    1  UNL1        0.0737
     24 C           5.2549   41.0961   10.0734 C.ar    1  UNL1        0.1415
     25 C           5.8989   41.4754    8.8922 C.ar    1  UNL1        0.0345
     26 C           7.1756   42.0446    8.9337 C.ar    1  UNL1        0.0037
     27 C           7.8183   42.2281   10.1621 C.ar    1  UNL1        0.0345
     28 C           8.7531   41.0976   13.1118 C.3     1  UNL1        0.2525
     29 O           7.8560   42.0538   12.5639 O.3     1  UNL1       -0.4713
     30 C           2.8561   41.2419    9.4888 C.3     1  UNL1        0.2525
     31 O           3.9780   40.5332    9.9971 O.3     1  UNL1       -0.4713
@<TRIPOS>BOND
     1    28    29    1
     2    22    29    1
     3    23    24   ar
     4    24    31    1
     5    30    31    1
     6    25    26   ar
     7    21    26    1
     8    21     6    1
     9     1     6    1
    10     1     2    1
    11     2     3    1
    12     3     7    1
    13     4     6   am
    14     9    10   ar
    15    11    12   ar
    16    12    16    1
    17    18    14    1
    18    18    19    1
    19    18    20    1
    20    13     8   ar
    21    27    22   ar
    22     7     4   am
    23     7     8    1
    24    16    14   am
    25    22    23   ar
    26    24    25   ar
    27    26    27   ar
    28     4     5    2
    29     8     9   ar
    30    10    11   ar
    31    12    13   ar
    32    14    15    2
    33    16    17    1
@<TRIPOS>MOLECULE
MolPort-006-579-808 ChemDiv-V011-7223 MCULE-1721688843 PubChem-46040772 ZINC37544022
 31 33 0 0 0
SMALL
GASTEIGER

@<TRIPOS>ATOM
      1 C          12.5623   41.2683    9.4339 C.3     1  UNL1        0.0971
      2 C          11.4013   40.5026   10.0589 C.3     1  UNL1        0.0435
      3 C          10.0963   41.1501    9.6247 C.3     1  UNL1        0.1015
      4 C          11.1132   41.3538    7.3677 C.2     1  UNL1        0.3112
      5 O          10.9949   41.5910    6.1341 O.2     1  UNL1       -0.2520
      6 N          12.4158   41.3731    7.9811 N.am    1  UNL1       -0.2596
      7 N           9.9536   41.0544    8.1721 N.am    1  UNL1       -0.2430
      8 C           8.6932   40.6267    7.6101 C.ar    1  UNL1        0.0565
      9 C           8.6676   39.8250    6.4569 C.ar    1  UNL1        0.0150
     10 C           7.4538   39.4197    5.8975 C.ar    1  UNL1        0.0026
     11 C           6.2498   39.8149    6.4829 C.ar    1  UNL1        0.0148
     12 C           6.2514   40.6204    7.6300 C.ar    1  UNL1        0.0515
     13 C           7.4719   41.0216    8.1819 C.ar    1  UNL1        0.0296
     14 C           4.9118   41.7122    9.5266 C.2     1  UNL1        0.2256
     15 O           5.9270   41.9846   10.2202 O.2     1  UNL1       -0.2748
     16 N           5.0363   41.0486    8.2595 N.am    1  UNL1       -0.2839
     17 H           4.2001   40.8687    7.7720 H       1  UNL1        0.1549
     18 C           3.5632   42.0956   10.0383 C.3     1  UNL1        0.0768
     19 C           2.4865   41.2627    9.3705 C.3     1  UNL1        0.0096
     20 C           3.4944   41.9178   11.5427 C.3     1  UNL1        0.0096
     21 C          13.5990   41.6964    7.1927 C.3     1  UNL1        0.1219
     22 C          17.0750   42.2200    8.6134 C.ar    1  UNL1        0.1415
     23 C          17.1745   41.1245    9.4862 C.ar    1  UNL1        0.0737
     24 C          16.1100   40.2183    9.6182 C.ar    1  UNL1        0.1415
     25 C          14.9449   40.4159    8.8716 C.ar    1  UNL1        0.0345
     26 C          14.8369   41.5074    8.0042 C.ar    1  UNL1        0.0037
     27 C          15.9027   42.4033    7.8738 C.ar    1  UNL1        0.0345
     28 C          18.1767   44.0654    7.3898 C.3     1  UNL1        0.2525
     29 O          18.1204   43.1352    8.4626 O.3     1  UNL1       -0.4713
     30 C          15.0971   38.7107   11.2970 C.3     1  UNL1        0.2525
     31 O          16.1843   39.1193   10.4782 O.3     1  UNL1       -0.4713
@<TRIPOS>BOND
     1    28    29    1
     2    22    29    1
     3    23    24   ar
     4    24    31    1
     5    30    31    1
     6    25    26   ar
     7    21    26    1
     8    21     6    1
     9     1     6    1
    10     1     2    1
    11     2     3    1
    12     3     7    1
    13     4     6   am
    14     9    10   ar
    15    11    12   ar
    16    12    16    1
    17    18    14    1
    18    18    19    1
    19    18    20    1
    20    13     8   ar
    21    27    22   ar
    22     7     4   am
    23     7     8    1
    24    16    14   am
    25    22    23   ar
    26    24    25   ar
    27    26    27   ar
    28     4     5    2
    29     8     9   ar
    30    10    11   ar
    31    12    13   ar
    32    14    15    2
    33    16    17    1
