@<TRIPOS>MOLECULE
Molport-046-971-704 MCULE-1980427541 PubChem-110111659
 28 31 0 0 0
SMALL
GASTEIGER

@<TRIPOS>ATOM
      1 C           9.2307   40.3168    7.0161 C.3     1  UNL1        0.0219
      2 C           7.9192   41.0973    7.0600 C.3     1  UNL1        0.0078
      3 C           8.1313   42.4577    7.7288 C.3     1  UNL1        0.0424
      4 C           8.7097   42.2823    9.1339 C.3     1  UNL1        0.0981
      5 C           9.7805   40.1412    8.4283 C.3     1  UNL1        0.0938
      6 C          11.1772   41.9819    9.4891 C.2     1  UNL1        0.2851
      7 N           9.9071   41.4481    9.0699 N.am    1  UNL1       -0.2732
      8 O          11.2899   43.2243    9.6767 O.2     1  UNL1       -0.2665
      9 C          12.3621   41.1266    9.7195 C.ar    1  UNL1        0.2171
     10 C          13.5088   39.4970   11.0008 C.ar    1  UNL1        0.1023
     11 C          14.6068   39.5792   10.1473 C.ar    1  UNL1        0.0414
     12 C          14.5446   40.4669    9.0753 C.ar    1  UNL1        0.1023
     13 N          12.4141   40.2691   10.7753 N.ar    1  UNL1       -0.2212
     14 N          13.4320   41.2223    8.8829 N.ar    1  UNL1       -0.2212
     15 C           6.8591   43.2430    7.7670 C.ar    1  UNL1       -0.0165
     16 C           5.7154   42.6608    8.3181 C.ar    1  UNL1        0.0302
     17 C           4.5214   43.3851    8.3584 C.ar    1  UNL1        0.1329
     18 C           5.5836   45.2422    7.3177 C.ar    1  UNL1        0.1000
     19 C           6.7930   44.5480    7.2611 C.ar    1  UNL1        0.0166
     20 N           4.4844   44.6527    7.8594 N.ar    1  UNL1       -0.2291
     21 N           3.3564   42.7747    8.9265 N.pl3   1  UNL1       -0.2834
     22 H           2.5099   42.8919    8.4377 H       1  UNL1        0.1550
     23 C           3.3040   42.0104   10.1372 C.ar    1  UNL1        0.1332
     24 C           3.9854   40.7919   10.2008 C.ar    1  UNL1        0.0345
     25 C           3.9398   40.0405   11.3764 C.ar    1  UNL1        0.0045
     26 C           3.2173   40.5102   12.4741 C.ar    1  UNL1        0.0208
     27 C           2.5483   41.7317   12.3763 C.ar    1  UNL1        0.1003
     28 N           2.6049   42.4491   11.2219 N.ar    1  UNL1       -0.2290
@<TRIPOS>BOND
     1     1     2    1
     2     2     3    1
     3     3     4    1
     4     3    15    1
     5     4     7    1
     6     5     7    1
     7     5     1    1
     8     6     9    1
     9     9    14   ar
    10    10    13   ar
    11    11    12   ar
    12    16    17   ar
    13    17    21    1
    14    18    20   ar
    15    19    15   ar
    16    23    28   ar
    17    24    25   ar
    18    26    27   ar
    19     7     6   am
    20    21    23    1
    21     6     8    2
    22     9    13   ar
    23    10    11   ar
    24    12    14   ar
    25    15    16   ar
    26    17    20   ar
    27    18    19   ar
    28    23    24   ar
    29    25    26   ar
    30    27    28   ar
    31    21    22    1
@<TRIPOS>MOLECULE
Molport-046-971-704 MCULE-1980427541 PubChem-110111659
 28 31 0 0 0
SMALL
GASTEIGER

@<TRIPOS>ATOM
      1 C          10.0784   39.1616    8.2840 C.3     1  UNL1        0.0219
      2 C          11.5180   38.9038    8.7227 C.3     1  UNL1        0.0078
      3 C          11.9924   40.0097    9.6686 C.3     1  UNL1        0.0424
      4 C          11.8617   41.3804    9.0026 C.3     1  UNL1        0.0981
      5 C           9.9753   40.5261    7.6096 C.3     1  UNL1        0.0938
      6 C           9.6798   42.6230    9.0169 C.2     1  UNL1        0.2851
      7 N          10.4994   41.5552    8.5052 N.am    1  UNL1       -0.2732
      8 O          10.0520   43.2419   10.0512 O.2     1  UNL1       -0.2665
      9 C           8.4142   43.0336    8.3702 C.ar    1  UNL1        0.2171
     10 C           6.9478   43.0061    6.5098 C.ar    1  UNL1        0.1023
     11 C           6.0667   43.8561    7.1747 C.ar    1  UNL1        0.0414
     12 C           6.4040   44.2847    8.4567 C.ar    1  UNL1        0.1023
     13 N           8.0998   42.6147    7.1139 N.ar    1  UNL1       -0.2212
     14 N           7.5654   43.8712    9.0273 N.ar    1  UNL1       -0.2212
     15 C          13.3968   39.7653   10.1211 C.ar    1  UNL1       -0.0165
     16 C          14.4489   40.3817    9.4401 C.ar    1  UNL1        0.0302
     17 C          15.7648   40.1600    9.8538 C.ar    1  UNL1        0.1329
     18 C          15.0026   38.7323   11.5975 C.ar    1  UNL1        0.1000
     19 C          13.6762   38.9313   11.2118 C.ar    1  UNL1        0.0166
     20 N          16.0089   39.3442   10.9177 N.ar    1  UNL1       -0.2291
     21 N          16.8337   40.7990    9.1455 N.pl3   1  UNL1       -0.2834
     22 H          17.7218   40.3787    9.2073 H       1  UNL1        0.1550
     23 C          16.7353   41.9904    8.3558 C.ar    1  UNL1        0.1332
     24 C          17.8268   42.8614    8.3022 C.ar    1  UNL1        0.0345
     25 C          17.7398   44.0246    7.5353 C.ar    1  UNL1        0.0045
     26 C          16.5685   44.3071    6.8313 C.ar    1  UNL1        0.0208
     27 C          15.4971   43.4151    6.9069 C.ar    1  UNL1        0.1003
     28 N          15.6015   42.2869    7.6598 N.ar    1  UNL1       -0.2290
@<TRIPOS>BOND
     1     1     2    1
     2     2     3    1
     3     3     4    1
     4     3    15    1
     5     4     7    1
     6     5     7    1
     7     5     1    1
     8     6     9    1
     9     9    14   ar
    10    10    13   ar
    11    11    12   ar
    12    16    17   ar
    13    17    21    1
    14    18    20   ar
    15    19    15   ar
    16    23    28   ar
    17    24    25   ar
    18    26    27   ar
    19     7     6   am
    20    21    23    1
    21     6     8    2
    22     9    13   ar
    23    10    11   ar
    24    12    14   ar
    25    15    16   ar
    26    17    20   ar
    27    18    19   ar
    28    23    24   ar
    29    25    26   ar
    30    27    28   ar
    31    21    22    1
@<TRIPOS>MOLECULE
Molport-046-971-704 MCULE-1980427541 PubChem-110111659
 28 31 0 0 0
SMALL
GASTEIGER

@<TRIPOS>ATOM
      1 C           8.8694   43.2216   10.9030 C.3     1  UNL1        0.0219
      2 C          10.0841   42.8546   10.0539 C.3     1  UNL1        0.0078
      3 C           9.6386   42.3118    8.6939 C.3     1  UNL1        0.0424
      4 C           8.7130   41.1073    8.8720 C.3     1  UNL1        0.0981
      5 C           7.9693   42.0026   11.0798 C.3     1  UNL1        0.0938
      6 C           6.2570   41.4144    9.2948 C.2     1  UNL1        0.2851
      7 N           7.6158   41.4614    9.7691 N.am    1  UNL1       -0.2732
      8 O           6.0417   41.3047    8.0566 O.2     1  UNL1       -0.2665
      9 C           5.0939   41.4810   10.2065 C.ar    1  UNL1        0.2171
     10 C           3.7966   40.5595   11.9616 C.ar    1  UNL1        0.1023
     11 C           2.8885   41.6111   11.8606 C.ar    1  UNL1        0.0414
     12 C           3.1195   42.5926   10.8992 C.ar    1  UNL1        0.1023
     13 N           4.8745   40.5114   11.1363 N.ar    1  UNL1       -0.2212
     14 N           4.2092   42.5096   10.0923 N.ar    1  UNL1       -0.2212
     15 C          10.8169   41.9610    7.8421 C.ar    1  UNL1       -0.0165
     16 C          12.0861   41.9101    8.4227 C.ar    1  UNL1        0.0302
     17 C          13.1939   41.5841    7.6362 C.ar    1  UNL1        0.1329
     18 C          11.8003   41.3617    5.7210 C.ar    1  UNL1        0.1000
     19 C          10.6719   41.6838    6.4763 C.ar    1  UNL1        0.0166
     20 N          13.0251   41.3189    6.3103 N.ar    1  UNL1       -0.2291
     21 N          14.4896   41.5360    8.2457 N.pl3   1  UNL1       -0.2834
     22 H          14.6032   40.9141    9.0003 H       1  UNL1        0.1550
     23 C          15.6361   42.3054    7.8632 C.ar    1  UNL1        0.1332
     24 C          15.4498   43.4929    7.1504 C.ar    1  UNL1        0.0345
     25 C          16.5612   44.2490    6.7737 C.ar    1  UNL1        0.0045
     26 C          17.8440   43.8147    7.1105 C.ar    1  UNL1        0.0208
     27 C          17.9940   42.6236    7.8232 C.ar    1  UNL1        0.1003
     28 N          16.8984   41.9011    8.1812 N.ar    1  UNL1       -0.2290
@<TRIPOS>BOND
     1     1     2    1
     2     2     3    1
     3     3     4    1
     4     3    15    1
     5     4     7    1
     6     5     7    1
     7     5     1    1
     8     6     9    1
     9     9    14   ar
    10    10    13   ar
    11    11    12   ar
    12    16    17   ar
    13    17    21    1
    14    18    20   ar
    15    19    15   ar
    16    23    28   ar
    17    24    25   ar
    18    26    27   ar
    19     7     6   am
    20    21    23    1
    21     6     8    2
    22     9    13   ar
    23    10    11   ar
    24    12    14   ar
    25    15    16   ar
    26    17    20   ar
    27    18    19   ar
    28    23    24   ar
    29    25    26   ar
    30    27    28   ar
    31    21    22    1
@<TRIPOS>MOLECULE
Molport-046-971-704 MCULE-1980427541 PubChem-110111659
 28 31 0 0 0
SMALL
GASTEIGER

@<TRIPOS>ATOM
      1 C          13.8073   36.0773    9.4688 C.3     1  UNL1        0.0219
      2 C          12.8537   37.2694    9.4456 C.3     1  UNL1        0.0078
      3 C          13.6267   38.5646    9.1852 C.3     1  UNL1        0.0424
      4 C          14.7196   38.7600   10.2373 C.3     1  UNL1        0.0981
      5 C          14.8786   36.2871   10.5345 C.3     1  UNL1        0.0938
      6 C          16.9583   37.6480    9.9990 C.2     1  UNL1        0.2851
      7 N          15.5537   37.5627   10.3049 N.am    1  UNL1       -0.2732
      8 O          17.4048   38.6907    9.4469 O.2     1  UNL1       -0.2665
      9 C          17.9085   36.5593   10.3156 C.ar    1  UNL1        0.2171
     10 C          19.0070   34.5460    9.7217 C.ar    1  UNL1        0.1023
     11 C          19.6518   34.5179   10.9564 C.ar    1  UNL1        0.0414
     12 C          19.3895   35.5441   11.8614 C.ar    1  UNL1        0.1023
     13 N          18.1500   35.5577    9.4260 N.ar    1  UNL1       -0.2212
     14 N          18.5261   36.5388   11.5288 N.ar    1  UNL1       -0.2212
     15 C          12.7056   39.7423    9.1440 C.ar    1  UNL1       -0.0165
     16 C          13.0386   40.8400    8.3472 C.ar    1  UNL1        0.0302
     17 C          12.1858   41.9457    8.3018 C.ar    1  UNL1        0.1329
     18 C          10.6905   40.8864    9.8188 C.ar    1  UNL1        0.1000
     19 C          11.5186   39.7652    9.8881 C.ar    1  UNL1        0.0166
     20 N          11.0375   41.9423    9.0354 N.ar    1  UNL1       -0.2291
     21 N          12.5407   43.0644    7.4801 N.pl3   1  UNL1       -0.2834
     22 H          11.8314   43.7208    7.2923 H       1  UNL1        0.1550
     23 C          13.8278   43.3204    6.9052 C.ar    1  UNL1        0.1332
     24 C          14.9739   43.0335    7.6516 C.ar    1  UNL1        0.0345
     25 C          16.2322   43.2797    7.0994 C.ar    1  UNL1        0.0045
     26 C          16.3349   43.8081    5.8119 C.ar    1  UNL1        0.0208
     27 C          15.1695   44.0829    5.0939 C.ar    1  UNL1        0.1003
     28 N          13.9526   43.8359    5.6496 N.ar    1  UNL1       -0.2290
@<TRIPOS>BOND
     1     1     2    1
     2     2     3    1
     3     3     4    1
     4     3    15    1
     5     4     7    1
     6     5     7    1
     7     5     1    1
     8     6     9    1
     9     9    14   ar
    10    10    13   ar
    11    11    12   ar
    12    16    17   ar
    13    17    21    1
    14    18    20   ar
    15    19    15   ar
    16    23    28   ar
    17    24    25   ar
    18    26    27   ar
    19     7     6   am
    20    21    23    1
    21     6     8    2
    22     9    13   ar
    23    10    11   ar
    24    12    14   ar
    25    15    16   ar
    26    17    20   ar
    27    18    19   ar
    28    23    24   ar
    29    25    26   ar
    30    27    28   ar
    31    21    22    1
@<TRIPOS>MOLECULE
Molport-046-971-704 MCULE-1980427541 PubChem-110111659
 28 31 0 0 0
SMALL
GASTEIGER

@<TRIPOS>ATOM
      1 C          13.0046   39.3766    8.6649 C.3     1  UNL1        0.0219
      2 C          11.4952   39.3368    8.4382 C.3     1  UNL1        0.0078
      3 C          11.1047   40.2683    7.2881 C.3     1  UNL1        0.0424
      4 C          11.5774   41.6958    7.5675 C.3     1  UNL1        0.0981
      5 C          13.4505   40.8061    8.9563 C.3     1  UNL1        0.0938
      6 C          13.9269   42.4073    7.0397 C.2     1  UNL1        0.2851
      7 N          13.0046   41.6869    7.8788 N.am    1  UNL1       -0.2732
      8 O          13.5339   42.8343    5.9196 O.2     1  UNL1       -0.2665
      9 C          15.3243   42.6775    7.4431 C.ar    1  UNL1        0.2171
     10 C          17.2355   44.0773    7.4401 C.ar    1  UNL1        0.1023
     11 C          17.9474   43.1297    8.1722 C.ar    1  UNL1        0.0414
     12 C          17.3026   41.9453    8.5221 C.ar    1  UNL1        0.1023
     13 N          15.9461   43.8351    7.0881 N.ar    1  UNL1       -0.2212
     14 N          16.0119   41.7398    8.1515 N.ar    1  UNL1       -0.2212
     15 C           9.6300   40.2305    7.0417 C.ar    1  UNL1       -0.0165
     16 C           8.8233   41.2349    7.5812 C.ar    1  UNL1        0.0302
     17 C           7.4444   41.2091    7.3578 C.ar    1  UNL1        0.1329
     18 C           7.6634   39.2145    6.0797 C.ar    1  UNL1        0.1000
     19 C           9.0441   39.2089    6.2825 C.ar    1  UNL1        0.0166
     20 N           6.9001   40.2040    6.6158 N.ar    1  UNL1       -0.2291
     21 N           6.6296   42.2460    7.9177 N.pl3   1  UNL1       -0.2834
     22 H           6.6677   43.1268    7.4795 H       1  UNL1        0.1550
     23 C           5.7646   42.1253    9.0534 C.ar    1  UNL1        0.1332
     24 C           6.2391   41.4887   10.2035 C.ar    1  UNL1        0.0345
     25 C           5.4032   41.3666   11.3149 C.ar    1  UNL1        0.0045
     26 C           4.1061   41.8791   11.2688 C.ar    1  UNL1        0.0208
     27 C           3.6643   42.5093   10.1039 C.ar    1  UNL1        0.1003
     28 N           4.4940   42.6182    9.0314 N.ar    1  UNL1       -0.2290
@<TRIPOS>BOND
     1     1     2    1
     2     2     3    1
     3     3     4    1
     4     3    15    1
     5     4     7    1
     6     5     7    1
     7     5     1    1
     8     6     9    1
     9     9    14   ar
    10    10    13   ar
    11    11    12   ar
    12    16    17   ar
    13    17    21    1
    14    18    20   ar
    15    19    15   ar
    16    23    28   ar
    17    24    25   ar
    18    26    27   ar
    19     7     6   am
    20    21    23    1
    21     6     8    2
    22     9    13   ar
    23    10    11   ar
    24    12    14   ar
    25    15    16   ar
    26    17    20   ar
    27    18    19   ar
    28    23    24   ar
    29    25    26   ar
    30    27    28   ar
    31    21    22    1
@<TRIPOS>MOLECULE
Molport-046-971-704 MCULE-1980427541 PubChem-110111659
 28 31 0 0 0
SMALL
GASTEIGER

@<TRIPOS>ATOM
      1 C          13.3102   39.3752    8.5350 C.3     1  UNL1        0.0219
      2 C          11.7954   39.2728    8.3735 C.3     1  UNL1        0.0078
      3 C          11.3134   40.2125    7.2655 C.3     1  UNL1        0.0424
      4 C          11.7350   41.6530    7.5602 C.3     1  UNL1        0.0981
      5 C          13.7056   40.8161    8.8430 C.3     1  UNL1        0.0938
      6 C          14.0251   42.4816    6.9486 C.2     1  UNL1        0.2851
      7 N          13.1737   41.7009    7.8086 N.am    1  UNL1       -0.2732
      8 O          13.5640   42.9166    5.8580 O.2     1  UNL1       -0.2665
      9 C          15.4259   42.8048    7.2975 C.ar    1  UNL1        0.2171
     10 C          17.4160   42.3227    8.4889 C.ar    1  UNL1        0.1023
     11 C          18.0221   43.4620    7.9640 C.ar    1  UNL1        0.0414
     12 C          17.2818   44.2640    7.0982 C.ar    1  UNL1        0.1023
     13 N          16.1361   42.0177    8.1511 N.ar    1  UNL1       -0.2212
     14 N          16.0042   43.9255    6.7843 N.ar    1  UNL1       -0.2212
     15 C           9.8322   40.1142    7.0828 C.ar    1  UNL1       -0.0165
     16 C           8.9889   40.7169    8.0190 C.ar    1  UNL1        0.0302
     17 C           7.6037   40.6307    7.8585 C.ar    1  UNL1        0.1329
     18 C           7.8882   39.3642    5.8648 C.ar    1  UNL1        0.1000
     19 C           9.2763   39.4303    5.9936 C.ar    1  UNL1        0.0166
     20 N           7.0890   39.9595    6.7900 N.ar    1  UNL1       -0.2291
     21 N           6.7513   41.2537    8.8268 N.pl3   1  UNL1       -0.2834
     22 H           6.7685   40.8826    9.7385 H       1  UNL1        0.1550
     23 C           5.8761   42.3646    8.5970 C.ar    1  UNL1        0.1332
     24 C           6.3149   43.4193    7.7919 C.ar    1  UNL1        0.0345
     25 C           5.4689   44.5057    7.5626 C.ar    1  UNL1        0.0045
     26 C           4.1971   44.5297    8.1365 C.ar    1  UNL1        0.0208
     27 C           3.7906   43.4593    8.9354 C.ar    1  UNL1        0.1003
     28 N           4.6298   42.4097    9.1469 N.ar    1  UNL1       -0.2290
@<TRIPOS>BOND
     1     1     2    1
     2     2     3    1
     3     3     4    1
     4     3    15    1
     5     4     7    1
     6     5     7    1
     7     5     1    1
     8     6     9    1
     9     9    14   ar
    10    10    13   ar
    11    11    12   ar
    12    16    17   ar
    13    17    21    1
    14    18    20   ar
    15    19    15   ar
    16    23    28   ar
    17    24    25   ar
    18    26    27   ar
    19     7     6   am
    20    21    23    1
    21     6     8    2
    22     9    13   ar
    23    10    11   ar
    24    12    14   ar
    25    15    16   ar
    26    17    20   ar
    27    18    19   ar
    28    23    24   ar
    29    25    26   ar
    30    27    28   ar
    31    21    22    1
@<TRIPOS>MOLECULE
Molport-046-971-704 MCULE-1980427541 PubChem-110111659
 28 31 0 0 0
SMALL
GASTEIGER

@<TRIPOS>ATOM
      1 C          11.0874   37.0718    9.8716 C.3     1  UNL1        0.0219
      2 C          12.5598   36.7082    9.6956 C.3     1  UNL1        0.0078
      3 C          13.4369   37.9541    9.8416 C.3     1  UNL1        0.0424
      4 C          13.0163   39.0291    8.8382 C.3     1  UNL1        0.0981
      5 C          10.6868   38.1333    8.8517 C.3     1  UNL1        0.0938
      6 C          11.1154   40.5919    9.3375 C.2     1  UNL1        0.2851
      7 N          11.5831   39.2822    8.9639 N.am    1  UNL1       -0.2732
      8 O          11.9407   41.4349    9.7842 O.2     1  UNL1       -0.2665
      9 C           9.6981   40.9963    9.2100 C.ar    1  UNL1        0.2171
     10 C           7.6877   41.7922   10.1782 C.ar    1  UNL1        0.1023
     11 C           7.0420   41.6985    8.9473 C.ar    1  UNL1        0.0414
     12 C           7.7704   41.2359    7.8534 C.ar    1  UNL1        0.1023
     13 N           8.9948   41.4389   10.2880 N.ar    1  UNL1       -0.2212
     14 N           9.0761   40.8924    8.0032 N.ar    1  UNL1       -0.2212
     15 C          14.8852   37.6139    9.6871 C.ar    1  UNL1       -0.0165
     16 C          15.2636   36.6607    8.7390 C.ar    1  UNL1        0.0302
     17 C          16.6136   36.3348    8.5866 C.ar    1  UNL1        0.1329
     18 C          17.2056   37.8814   10.2947 C.ar    1  UNL1        0.1000
     19 C          15.8665   38.2313   10.4738 C.ar    1  UNL1        0.0166
     20 N          17.5479   36.9502    9.3646 N.ar    1  UNL1       -0.2291
     21 N          16.9867   35.3551    7.6101 N.pl3   1  UNL1       -0.2834
     22 H          17.3034   34.4870    7.9498 H       1  UNL1        0.1550
     23 C          16.9436   35.5163    6.1872 C.ar    1  UNL1        0.1332
     24 C          18.0939   35.9413    5.5169 C.ar    1  UNL1        0.0345
     25 C          18.0609   36.1011    4.1305 C.ar    1  UNL1        0.0045
     26 C          16.8846   35.8361    3.4280 C.ar    1  UNL1        0.0208
     27 C          15.7538   35.4130    4.1290 C.ar    1  UNL1        0.1003
     28 N          15.8061   35.2633    5.4801 N.ar    1  UNL1       -0.2290
@<TRIPOS>BOND
     1     1     2    1
     2     2     3    1
     3     3     4    1
     4     3    15    1
     5     4     7    1
     6     5     7    1
     7     5     1    1
     8     6     9    1
     9     9    14   ar
    10    10    13   ar
    11    11    12   ar
    12    16    17   ar
    13    17    21    1
    14    18    20   ar
    15    19    15   ar
    16    23    28   ar
    17    24    25   ar
    18    26    27   ar
    19     7     6   am
    20    21    23    1
    21     6     8    2
    22     9    13   ar
    23    10    11   ar
    24    12    14   ar
    25    15    16   ar
    26    17    20   ar
    27    18    19   ar
    28    23    24   ar
    29    25    26   ar
    30    27    28   ar
    31    21    22    1
@<TRIPOS>MOLECULE
Molport-046-971-704 MCULE-1980427541 PubChem-110111659
 28 31 0 0 0
SMALL
GASTEIGER

@<TRIPOS>ATOM
      1 C           3.7538   40.2309   12.3532 C.3     1  UNL1        0.0219
      2 C           4.4872   40.7511   11.1192 C.3     1  UNL1        0.0078
      3 C           4.2447   42.2529   10.9495 C.3     1  UNL1        0.0424
      4 C           2.7469   42.5496   10.8600 C.3     1  UNL1        0.0981
      5 C           2.2614   40.5241   12.2350 C.3     1  UNL1        0.0938
      6 C           1.3502   42.7930   12.9324 C.2     1  UNL1        0.2851
      7 N           2.0605   41.9530   12.0031 N.am    1  UNL1       -0.2732
      8 O           1.5260   44.0415   12.8906 O.2     1  UNL1       -0.2665
      9 C           0.4089   42.2498   13.9361 C.ar    1  UNL1        0.2171
     10 C          -1.4392   40.8777   14.4966 C.ar    1  UNL1        0.1023
     11 C          -1.3607   41.2914   15.8246 C.ar    1  UNL1        0.0414
     12 C          -0.3692   42.2058   16.1735 C.ar    1  UNL1        0.1023
     13 N          -0.5609   41.3631   13.5811 N.ar    1  UNL1       -0.2212
     14 N           0.4908   42.6683   15.2291 N.ar    1  UNL1       -0.2212
     15 C           4.9687   42.7832    9.7530 C.ar    1  UNL1       -0.0165
     16 C           6.2573   42.3210    9.4763 C.ar    1  UNL1        0.0302
     17 C           6.9430   42.8101    8.3616 C.ar    1  UNL1        0.1329
     18 C           5.0944   44.1994    7.8026 C.ar    1  UNL1        0.1000
     19 C           4.3803   43.7328    8.9072 C.ar    1  UNL1        0.0166
     20 N           6.3478   43.7333    7.5552 N.ar    1  UNL1       -0.2291
     21 N           8.2642   42.3268    8.0905 N.pl3   1  UNL1       -0.2834
     22 H           9.0138   42.8735    8.4197 H       1  UNL1        0.1550
     23 C           8.6002   41.1249    7.3868 C.ar    1  UNL1        0.1332
     24 C           9.1601   40.0578    8.0945 C.ar    1  UNL1        0.0345
     25 C           9.4906   38.8829    7.4169 C.ar    1  UNL1        0.0045
     26 C           9.2600   38.7838    6.0441 C.ar    1  UNL1        0.0208
     27 C           8.6990   39.8689    5.3681 C.ar    1  UNL1        0.1003
     28 N           8.3839   41.0052    6.0464 N.ar    1  UNL1       -0.2290
@<TRIPOS>BOND
     1     1     2    1
     2     2     3    1
     3     3     4    1
     4     3    15    1
     5     4     7    1
     6     5     7    1
     7     5     1    1
     8     6     9    1
     9     9    14   ar
    10    10    13   ar
    11    11    12   ar
    12    16    17   ar
    13    17    21    1
    14    18    20   ar
    15    19    15   ar
    16    23    28   ar
    17    24    25   ar
    18    26    27   ar
    19     7     6   am
    20    21    23    1
    21     6     8    2
    22     9    13   ar
    23    10    11   ar
    24    12    14   ar
    25    15    16   ar
    26    17    20   ar
    27    18    19   ar
    28    23    24   ar
    29    25    26   ar
    30    27    28   ar
    31    21    22    1
@<TRIPOS>MOLECULE
Molport-046-971-704 MCULE-1980427541 PubChem-110111659
 28 31 0 0 0
SMALL
GASTEIGER

@<TRIPOS>ATOM
      1 C          11.1404   39.7878   11.4061 C.3     1  UNL1        0.0219
      2 C          10.1889   40.9624   11.1914 C.3     1  UNL1        0.0078
      3 C          10.3444   41.5216    9.7751 C.3     1  UNL1        0.0424
      4 C          11.7932   41.9385    9.5171 C.3     1  UNL1        0.0981
      5 C          12.5792   40.2303   11.1582 C.3     1  UNL1        0.0938
      6 C          13.5136   40.2585    8.7938 C.2     1  UNL1        0.2851
      7 N          12.6858   40.8245    9.8273 N.am    1  UNL1       -0.2732
      8 O          13.2883   40.5627    7.5904 O.2     1  UNL1       -0.2665
      9 C          14.6314   39.3350    9.0871 C.ar    1  UNL1        0.2171
     10 C          15.5228   37.1418    9.1749 C.ar    1  UNL1        0.1023
     11 C          16.7203   37.6346    9.6887 C.ar    1  UNL1        0.0414
     12 C          16.8341   39.0075    9.8962 C.ar    1  UNL1        0.1023
     13 N          14.5050   37.9944    8.8878 N.ar    1  UNL1       -0.2212
     14 N          15.7938   39.8281    9.5966 N.ar    1  UNL1       -0.2212
     15 C           9.4082   42.6644    9.5417 C.ar    1  UNL1       -0.0165
     16 C           8.0815   42.3983    9.1956 C.ar    1  UNL1        0.0302
     17 C           7.1984   43.4582    8.9747 C.ar    1  UNL1        0.1329
     18 C           8.9266   45.0270    9.4348 C.ar    1  UNL1        0.1000
     19 C           9.8359   43.9931    9.6628 C.ar    1  UNL1        0.0166
     20 N           7.6402   44.7412    9.0990 N.ar    1  UNL1       -0.2291
     21 N           5.8406   43.1698    8.6201 N.pl3   1  UNL1       -0.2834
     22 H           5.4884   43.6108    7.8135 H       1  UNL1        0.1550
     23 C           4.9455   42.3017    9.3259 C.ar    1  UNL1        0.1332
     24 C           5.4438   41.5140   10.3671 C.ar    1  UNL1        0.0345
     25 C           4.5789   40.6653   11.0602 C.ar    1  UNL1        0.0045
     26 C           3.2293   40.6106   10.7093 C.ar    1  UNL1        0.0208
     27 C           2.7649   41.4113    9.6641 C.ar    1  UNL1        0.1003
     28 N           3.6237   42.2318    9.0009 N.ar    1  UNL1       -0.2290
@<TRIPOS>BOND
     1     1     2    1
     2     2     3    1
     3     3     4    1
     4     3    15    1
     5     4     7    1
     6     5     7    1
     7     5     1    1
     8     6     9    1
     9     9    14   ar
    10    10    13   ar
    11    11    12   ar
    12    16    17   ar
    13    17    21    1
    14    18    20   ar
    15    19    15   ar
    16    23    28   ar
    17    24    25   ar
    18    26    27   ar
    19     7     6   am
    20    21    23    1
    21     6     8    2
    22     9    13   ar
    23    10    11   ar
    24    12    14   ar
    25    15    16   ar
    26    17    20   ar
    27    18    19   ar
    28    23    24   ar
    29    25    26   ar
    30    27    28   ar
    31    21    22    1
@<TRIPOS>MOLECULE
Molport-046-971-704 MCULE-1980427541 PubChem-110111659
 28 31 0 0 0
SMALL
GASTEIGER

@<TRIPOS>ATOM
      1 C           3.5788   40.0927   12.1868 C.3     1  UNL1        0.0219
      2 C           4.4277   40.6024   11.0245 C.3     1  UNL1        0.0078
      3 C           4.3531   42.1288   10.9400 C.3     1  UNL1        0.0424
      4 C           2.9014   42.5898   10.7992 C.3     1  UNL1        0.0981
      5 C           2.1337   40.5513   12.0174 C.3     1  UNL1        0.0938
      6 C           1.4286   42.8603   12.8148 C.2     1  UNL1        0.2851
      7 N           2.0961   42.0046   11.8682 N.am    1  UNL1       -0.2732
      8 O           1.7360   44.0829   12.8612 O.2     1  UNL1       -0.2665
      9 C           0.3832   42.3636   13.7361 C.ar    1  UNL1        0.2171
     10 C          -0.4258   42.0077   15.9341 C.ar    1  UNL1        0.1023
     11 C          -1.5645   41.3843   15.4285 C.ar    1  UNL1        0.0414
     12 C          -1.6919   41.2631   14.0464 C.ar    1  UNL1        0.1023
     13 N           0.5232   42.4806   15.0850 N.ar    1  UNL1       -0.2212
     14 N          -0.7211   41.7489   13.2297 N.ar    1  UNL1       -0.2212
     15 C           5.1916   42.6474    9.8153 C.ar    1  UNL1       -0.0165
     16 C           6.4553   42.0942    9.5966 C.ar    1  UNL1        0.0302
     17 C           7.2474   42.5714    8.5493 C.ar    1  UNL1        0.1329
     18 C           5.5528   44.1273    7.9433 C.ar    1  UNL1        0.1000
     19 C           4.7349   43.6752    8.9798 C.ar    1  UNL1        0.0166
     20 N           6.7792   43.5719    7.7514 N.ar    1  UNL1       -0.2291
     21 N           8.5414   41.9943    8.3372 N.pl3   1  UNL1       -0.2834
     22 H           8.8575   41.9414    7.4063 H       1  UNL1        0.1550
     23 C           9.4201   41.4868    9.3486 C.ar    1  UNL1        0.1332
     24 C          10.3067   40.4566    9.0232 C.ar    1  UNL1        0.0345
     25 C          11.1665   39.9560   10.0024 C.ar    1  UNL1        0.0045
     26 C          11.1341   40.4861   11.2929 C.ar    1  UNL1        0.0208
     27 C          10.2361   41.5148   11.5837 C.ar    1  UNL1        0.1003
     28 N           9.4063   41.9890   10.6157 N.ar    1  UNL1       -0.2290
@<TRIPOS>BOND
     1     1     2    1
     2     2     3    1
     3     3     4    1
     4     3    15    1
     5     4     7    1
     6     5     7    1
     7     5     1    1
     8     6     9    1
     9     9    14   ar
    10    10    13   ar
    11    11    12   ar
    12    16    17   ar
    13    17    21    1
    14    18    20   ar
    15    19    15   ar
    16    23    28   ar
    17    24    25   ar
    18    26    27   ar
    19     7     6   am
    20    21    23    1
    21     6     8    2
    22     9    13   ar
    23    10    11   ar
    24    12    14   ar
    25    15    16   ar
    26    17    20   ar
    27    18    19   ar
    28    23    24   ar
    29    25    26   ar
    30    27    28   ar
    31    21    22    1
