@<TRIPOS>MOLECULE
Molport-020-282-180 MCULE-3806633297 PubChem-110257665
 25 27 0 0 0
SMALL
GASTEIGER

@<TRIPOS>ATOM
      1 C          17.3615   40.5246    9.5064 C.ar    1  UNL1        0.1329
      2 C          18.2269   38.3729   10.0373 C.ar    1  UNL1        0.1000
      3 C          16.9356   37.8673   10.1951 C.ar    1  UNL1        0.0165
      4 C          15.8383   38.7169   10.0026 C.ar    1  UNL1       -0.0168
      5 C          16.0551   40.0523    9.6559 C.ar    1  UNL1        0.0302
      6 N          18.4110   39.6773    9.6999 N.ar    1  UNL1       -0.2291
      7 C          14.4353   38.2230   10.1574 C.3     1  UNL1        0.0402
      8 C          14.3202   37.2456   11.3181 C.3     1  UNL1        0.0073
      9 C          12.8731   36.8075   11.4555 C.3     1  UNL1        0.0195
     10 C          12.3979   36.1640   10.1523 C.3     1  UNL1        0.0954
     11 C          13.9331   37.5769    8.8623 C.3     1  UNL1        0.0997
     12 N          12.5690   37.0410    8.9836 N.3     1  UNL1       -0.1591
     13 C          11.7951   39.6070    7.8011 C.3     1  UNL1        0.1960
     14 S          11.3745   38.3106    8.9474 S.O2    1  UNL1        0.0457
     15 O          11.2464   38.9067   10.3210 O.2     1  UNL1       -0.1572
     16 O          10.0487   37.7277    8.5469 O.2     1  UNL1       -0.1572
     17 N          17.5685   41.8968    9.1509 N.pl3   1  UNL1       -0.2834
     18 H          18.2012   42.4092    9.7044 H       1  UNL1        0.1550
     19 C          13.6421   42.6795    6.3265 C.3     1  UNL1        0.0521
     20 C          15.0502   42.9938    6.6821 C.ar    1  UNL1        0.0608
     21 C          16.9436   42.5952    8.0674 C.ar    1  UNL1        0.1328
     22 C          17.6753   43.5588    7.3681 C.ar    1  UNL1        0.0344
     23 C          17.0740   44.2440    6.3109 C.ar    1  UNL1        0.0041
     24 C          15.7523   43.9624    5.9624 C.ar    1  UNL1        0.0148
     25 N          15.6542   42.3372    7.7090 N.ar    1  UNL1       -0.2349
@<TRIPOS>BOND
     1    19    20    1
     2    21    25   ar
     3    21    17    1
     4    22    23   ar
     5    24    20   ar
     6     2     6   ar
     7     3     4   ar
     8     5     1   ar
     9     7     4    1
    10     7     8    1
    11     8     9    1
    12     9    10    1
    13    10    12    1
    14    11    12    1
    15    11     7    1
    16    17     1    1
    17    14    12    1
    18    14    13    1
    19    20    25   ar
    20    21    22   ar
    21    23    24   ar
    22     1     6   ar
    23     2     3   ar
    24     4     5   ar
    25    14    15    2
    26    14    16    2
    27    17    18    1
@<TRIPOS>MOLECULE
Molport-020-282-180 MCULE-3806633297 PubChem-110257665
 25 27 0 0 0
SMALL
GASTEIGER

@<TRIPOS>ATOM
      1 C          14.5933   40.4600    9.4953 C.ar    1  UNL1        0.1329
      2 C          13.2991   39.5546   11.2744 C.ar    1  UNL1        0.1000
      3 C          12.1158   39.8821   10.6108 C.ar    1  UNL1        0.0165
      4 C          12.1822   40.5131    9.3616 C.ar    1  UNL1       -0.0168
      5 C          13.4291   40.8021    8.8027 C.ar    1  UNL1        0.0302
      6 N          14.5006   39.8475   10.7089 N.ar    1  UNL1       -0.2291
      7 C          10.9435   40.8821    8.6095 C.3     1  UNL1        0.0402
      8 C          10.0545   41.8045    9.4309 C.3     1  UNL1        0.0073
      9 C           8.8347   42.1791    8.6083 C.3     1  UNL1        0.0195
     10 C           8.0768   40.9166    8.1963 C.3     1  UNL1        0.0954
     11 C          10.1671   39.6331    8.1808 C.3     1  UNL1        0.0997
     12 N           8.9190   39.9524    7.4716 N.3     1  UNL1       -0.1591
     13 C          10.8532   40.0126    5.2722 C.3     1  UNL1        0.1960
     14 S           9.2243   40.4641    5.8329 S.O2    1  UNL1        0.0457
     15 O           9.0838   41.9578    5.7483 O.2     1  UNL1       -0.1572
     16 O           8.2108   39.8300    4.9225 O.2     1  UNL1       -0.1572
     17 N          15.8652   40.7630    8.9097 N.pl3   1  UNL1       -0.2834
     18 H          16.5553   40.0625    8.9578 H       1  UNL1        0.1550
     19 C          14.9809   44.1714    5.5027 C.3     1  UNL1        0.0521
     20 C          15.8218   43.6557    6.6141 C.ar    1  UNL1        0.0608
     21 C          16.2296   41.9871    8.2609 C.ar    1  UNL1        0.1328
     22 C          17.3710   42.6698    8.6898 C.ar    1  UNL1        0.0344
     23 C          17.7333   43.8633    8.0631 C.ar    1  UNL1        0.0041
     24 C          16.9558   44.3632    7.0174 C.ar    1  UNL1        0.0148
     25 N          15.4857   42.4946    7.2378 N.ar    1  UNL1       -0.2349
@<TRIPOS>BOND
     1    19    20    1
     2    21    25   ar
     3    21    17    1
     4    22    23   ar
     5    24    20   ar
     6     2     6   ar
     7     3     4   ar
     8     5     1   ar
     9     7     4    1
    10     7     8    1
    11     8     9    1
    12     9    10    1
    13    10    12    1
    14    11    12    1
    15    11     7    1
    16    17     1    1
    17    14    12    1
    18    14    13    1
    19    20    25   ar
    20    21    22   ar
    21    23    24   ar
    22     1     6   ar
    23     2     3   ar
    24     4     5   ar
    25    14    15    2
    26    14    16    2
    27    17    18    1
@<TRIPOS>MOLECULE
Molport-020-282-180 MCULE-3806633297 PubChem-110257665
 25 27 0 0 0
SMALL
GASTEIGER

@<TRIPOS>ATOM
      1 C          15.7394   40.1159    9.8920 C.ar    1  UNL1        0.1329
      2 C          15.0280   38.7145   11.6782 C.ar    1  UNL1        0.1000
      3 C          13.6913   38.9013   11.3227 C.ar    1  UNL1        0.0165
      4 C          13.3808   39.7159   10.2259 C.ar    1  UNL1       -0.0168
      5 C          14.4124   40.3250    9.5079 C.ar    1  UNL1        0.0302
      6 N          16.0138   39.3195   10.9630 N.ar    1  UNL1       -0.2291
      7 C          11.9649   39.9456    9.8034 C.3     1  UNL1        0.0402
      8 C          11.5173   38.9046    8.7876 C.3     1  UNL1        0.0073
      9 C          10.0654   39.1592    8.4239 C.3     1  UNL1        0.0195
     10 C           9.9100   40.5723    7.8605 C.3     1  UNL1        0.0954
     11 C          11.7811   41.3577    9.2386 C.3     1  UNL1        0.0997
     12 N          10.4095   41.6122    8.7734 N.3     1  UNL1       -0.1591
     13 C           9.2812   43.5849   10.6219 C.3     1  UNL1        0.1960
     14 S           9.3184   41.8806   10.1067 S.O2    1  UNL1        0.0457
     15 O           9.7473   41.0354   11.2729 O.2     1  UNL1       -0.1572
     16 O           7.9313   41.4729    9.6973 O.2     1  UNL1       -0.1572
     17 N          16.7869   40.7475    9.1464 N.pl3   1  UNL1       -0.2834
     18 H          17.6688   40.3101    9.1602 H       1  UNL1        0.1550
     19 C          14.2339   43.5926    6.0814 C.3     1  UNL1        0.0521
     20 C          15.4545   43.3539    6.8945 C.ar    1  UNL1        0.0608
     21 C          16.6748   41.9543    8.3825 C.ar    1  UNL1        0.1328
     22 C          17.7195   42.8817    8.4202 C.ar    1  UNL1        0.0344
     23 C          17.6185   44.0602    7.6789 C.ar    1  UNL1        0.0041
     24 C          16.4795   44.3018    6.9093 C.ar    1  UNL1        0.0148
     25 N          15.5723   42.2119    7.6239 N.ar    1  UNL1       -0.2349
@<TRIPOS>BOND
     1    19    20    1
     2    21    25   ar
     3    21    17    1
     4    22    23   ar
     5    24    20   ar
     6     2     6   ar
     7     3     4   ar
     8     5     1   ar
     9     7     4    1
    10     7     8    1
    11     8     9    1
    12     9    10    1
    13    10    12    1
    14    11    12    1
    15    11     7    1
    16    17     1    1
    17    14    12    1
    18    14    13    1
    19    20    25   ar
    20    21    22   ar
    21    23    24   ar
    22     1     6   ar
    23     2     3   ar
    24     4     5   ar
    25    14    15    2
    26    14    16    2
    27    17    18    1
@<TRIPOS>MOLECULE
Molport-020-282-180 MCULE-3806633297 PubChem-110257665
 25 27 0 0 0
SMALL
GASTEIGER

@<TRIPOS>ATOM
      1 C          12.1205   41.4162    6.8192 C.ar    1  UNL1        0.1329
      2 C          10.5914   40.6965    5.1446 C.ar    1  UNL1        0.1000
      3 C           9.5080   41.0762    5.9383 C.ar    1  UNL1        0.0165
      4 C           9.7455   41.6374    7.1999 C.ar    1  UNL1       -0.0168
      5 C          11.0600   41.8077    7.6402 C.ar    1  UNL1        0.0302
      6 N          11.8617   40.8725    5.5969 N.ar    1  UNL1       -0.2291
      7 C           8.6193   42.0625    8.0869 C.3     1  UNL1        0.0402
      8 C           8.7340   41.4281    9.4654 C.3     1  UNL1        0.0073
      9 C           7.5922   41.9227   10.3353 C.3     1  UNL1        0.0195
     10 C           6.2531   41.5737    9.6847 C.3     1  UNL1        0.0954
     11 C           7.2644   41.7277    7.4552 C.3     1  UNL1        0.0997
     12 N           6.1282   42.0936    8.3142 N.3     1  UNL1       -0.1591
     13 C           7.2404   44.7434    8.8823 C.3     1  UNL1        0.1960
     14 S           5.8387   43.8129    8.2986 S.O2    1  UNL1        0.0457
     15 O           4.6578   44.1222    9.1750 O.2     1  UNL1       -0.1572
     16 O           5.5263   44.2466    6.8942 O.2     1  UNL1       -0.1572
     17 N          13.4634   41.5968    7.2843 N.pl3   1  UNL1       -0.2834
     18 H          13.8149   40.9169    7.9036 H       1  UNL1        0.1550
     19 C          17.7874   43.8498    7.7667 C.3     1  UNL1        0.0521
     20 C          16.4362   43.7841    7.1519 C.ar    1  UNL1        0.0608
     21 C          14.3441   42.6713    6.9349 C.ar    1  UNL1        0.1328
     22 C          13.9103   43.6356    6.0212 C.ar    1  UNL1        0.0344
     23 C          14.7621   44.6860    5.6752 C.ar    1  UNL1        0.0041
     24 C          16.0349   44.7643    6.2424 C.ar    1  UNL1        0.0148
     25 N          15.5913   42.7685    7.4757 N.ar    1  UNL1       -0.2349
@<TRIPOS>BOND
     1    19    20    1
     2    21    25   ar
     3    21    17    1
     4    22    23   ar
     5    24    20   ar
     6     2     6   ar
     7     3     4   ar
     8     5     1   ar
     9     7     4    1
    10     7     8    1
    11     8     9    1
    12     9    10    1
    13    10    12    1
    14    11    12    1
    15    11     7    1
    16    17     1    1
    17    14    12    1
    18    14    13    1
    19    20    25   ar
    20    21    22   ar
    21    23    24   ar
    22     1     6   ar
    23     2     3   ar
    24     4     5   ar
    25    14    15    2
    26    14    16    2
    27    17    18    1
@<TRIPOS>MOLECULE
Molport-020-282-180 MCULE-3806633297 PubChem-110257665
 25 27 0 0 0
SMALL
GASTEIGER

@<TRIPOS>ATOM
      1 C          14.3777   40.4718    9.4288 C.ar    1  UNL1        0.1329
      2 C          13.2797   39.5779   11.3407 C.ar    1  UNL1        0.1000
      3 C          12.0475   40.0432   10.8790 C.ar    1  UNL1        0.0165
      4 C          11.9885   40.7379    9.6638 C.ar    1  UNL1       -0.0168
      5 C          13.1614   40.9517    8.9363 C.ar    1  UNL1        0.0302
      6 N          14.4073   39.7997   10.6137 N.ar    1  UNL1       -0.2291
      7 C          10.6927   41.2544    9.1250 C.3     1  UNL1        0.0402
      8 C           9.9109   42.0036   10.1942 C.3     1  UNL1        0.0073
      9 C           8.6272   42.5393    9.5858 C.3     1  UNL1        0.0195
     10 C           7.8012   41.3863    9.0143 C.3     1  UNL1        0.0954
     11 C           9.8470   40.1181    8.5415 C.3     1  UNL1        0.0997
     12 N           8.5448   40.5775    8.0359 N.3     1  UNL1       -0.1591
     13 C           7.5672   42.7601    6.3440 C.3     1  UNL1        0.1960
     14 S           8.7031   41.3980    6.5056 S.O2    1  UNL1        0.0457
     15 O           8.4439   40.4216    5.3931 O.2     1  UNL1       -0.1572
     16 O          10.1045   41.9238    6.3718 O.2     1  UNL1       -0.1572
     17 N          15.5726   40.6988    8.6718 N.pl3   1  UNL1       -0.2834
     18 H          16.1324   39.9126    8.4778 H       1  UNL1        0.1550
     19 C          14.9533   44.5513    5.7085 C.3     1  UNL1        0.0521
     20 C          15.7532   43.8413    6.7401 C.ar    1  UNL1        0.0608
     21 C          16.0313   41.9598    8.1700 C.ar    1  UNL1        0.1328
     22 C          17.2243   42.4942    8.6641 C.ar    1  UNL1        0.0344
     23 C          17.6786   43.7225    8.1807 C.ar    1  UNL1        0.0041
     24 C          16.9407   44.4040    7.2117 C.ar    1  UNL1        0.0148
     25 N          15.3277   42.6435    7.2240 N.ar    1  UNL1       -0.2349
@<TRIPOS>BOND
     1    19    20    1
     2    21    25   ar
     3    21    17    1
     4    22    23   ar
     5    24    20   ar
     6     2     6   ar
     7     3     4   ar
     8     5     1   ar
     9     7     4    1
    10     7     8    1
    11     8     9    1
    12     9    10    1
    13    10    12    1
    14    11    12    1
    15    11     7    1
    16    17     1    1
    17    14    12    1
    18    14    13    1
    19    20    25   ar
    20    21    22   ar
    21    23    24   ar
    22     1     6   ar
    23     2     3   ar
    24     4     5   ar
    25    14    15    2
    26    14    16    2
    27    17    18    1
@<TRIPOS>MOLECULE
Molport-020-282-180 MCULE-3806633297 PubChem-110257665
 25 27 0 0 0
SMALL
GASTEIGER

@<TRIPOS>ATOM
      1 C          12.8014   41.1515    8.4201 C.ar    1  UNL1        0.1329
      2 C          12.7741   40.2142   10.6066 C.ar    1  UNL1        0.1000
      3 C          11.4640   40.6534   10.8034 C.ar    1  UNL1        0.0165
      4 C          10.8158   41.3573    9.7800 C.ar    1  UNL1       -0.0168
      5 C          11.4902   41.6060    8.5825 C.ar    1  UNL1        0.0302
      6 N          13.4089   40.4698    9.4315 N.ar    1  UNL1       -0.2291
      7 C           9.4120   41.8469    9.9407 C.3     1  UNL1        0.0402
      8 C           8.8445   41.4568   11.2977 C.3     1  UNL1        0.0073
      9 C           7.4366   42.0109   11.4241 C.3     1  UNL1        0.0195
     10 C           6.5614   41.4717   10.2921 C.3     1  UNL1        0.0954
     11 C           8.5142   41.3237    8.8151 C.3     1  UNL1        0.0997
     12 N           7.1139   41.7496    8.9572 N.3     1  UNL1       -0.1591
     13 C           6.7917   43.6372    6.7403 C.3     1  UNL1        0.1960
     14 S           6.9015   43.4200    8.5045 S.O2    1  UNL1        0.0457
     15 O           8.0652   44.2215    9.0159 O.2     1  UNL1       -0.1572
     16 O           5.6402   43.9432    9.1315 O.2     1  UNL1       -0.1572
     17 N          13.4807   41.4143    7.1865 N.pl3   1  UNL1       -0.2834
     18 H          13.3462   40.7662    6.4577 H       1  UNL1        0.1550
     19 C          17.6623   43.8376    7.9919 C.3     1  UNL1        0.0521
     20 C          16.3603   43.7247    7.2847 C.ar    1  UNL1        0.0608
     21 C          14.3369   42.5294    6.9112 C.ar    1  UNL1        0.1328
     22 C          13.9261   43.4880    5.9810 C.ar    1  UNL1        0.0344
     23 C          14.7543   44.5778    5.7068 C.ar    1  UNL1        0.0041
     24 C          15.9809   44.7006    6.3612 C.ar    1  UNL1        0.0148
     25 N          15.5390   42.6704    7.5377 N.ar    1  UNL1       -0.2349
@<TRIPOS>BOND
     1    19    20    1
     2    21    25   ar
     3    21    17    1
     4    22    23   ar
     5    24    20   ar
     6     2     6   ar
     7     3     4   ar
     8     5     1   ar
     9     7     4    1
    10     7     8    1
    11     8     9    1
    12     9    10    1
    13    10    12    1
    14    11    12    1
    15    11     7    1
    16    17     1    1
    17    14    12    1
    18    14    13    1
    19    20    25   ar
    20    21    22   ar
    21    23    24   ar
    22     1     6   ar
    23     2     3   ar
    24     4     5   ar
    25    14    15    2
    26    14    16    2
    27    17    18    1
@<TRIPOS>MOLECULE
Molport-020-282-180 MCULE-3806633297 PubChem-110257665
 25 27 0 0 0
SMALL
GASTEIGER

@<TRIPOS>ATOM
      1 C          12.5907   42.2069    6.3927 C.ar    1  UNL1        0.1329
      2 C          14.8450   42.8867    6.7337 C.ar    1  UNL1        0.1000
      3 C          15.0123   41.9159    7.7223 C.ar    1  UNL1        0.0165
      4 C          13.9389   41.0762    8.0475 C.ar    1  UNL1       -0.0168
      5 C          12.7226   41.2242    7.3771 C.ar    1  UNL1        0.0302
      6 N          13.6503   43.0107    6.0962 N.ar    1  UNL1       -0.2291
      7 C          14.0681   40.0193    9.0974 C.3     1  UNL1        0.0402
      8 C          13.1160   40.2750   10.2566 C.3     1  UNL1        0.0073
      9 C          13.2589   39.1552   11.2718 C.3     1  UNL1        0.0195
     10 C          14.7054   39.0781   11.7616 C.3     1  UNL1        0.0954
     11 C          15.5109   39.9185    9.6025 C.3     1  UNL1        0.0997
     12 N          15.6744   38.9166   10.6665 N.3     1  UNL1       -0.1591
     13 C          14.2081   36.3859   10.5033 C.3     1  UNL1        0.1960
     14 S          15.6643   37.2942   10.0280 S.O2    1  UNL1        0.0457
     15 O          16.8747   36.5588   10.5306 O.2     1  UNL1       -0.1572
     16 O          15.7231   37.3553    8.5278 O.2     1  UNL1       -0.1572
     17 N          11.3371   42.3472    5.7138 N.pl3   1  UNL1       -0.2834
     18 H          11.1421   43.2269    5.3171 H       1  UNL1        0.1550
     19 C           9.4901   38.5906    3.1676 C.3     1  UNL1        0.0521
     20 C           9.4234   39.5039    4.3379 C.ar    1  UNL1        0.0608
     21 C          10.3399   41.3308    5.5565 C.ar    1  UNL1        0.1328
     22 C           9.3245   41.2218    6.5105 C.ar    1  UNL1        0.0344
     23 C           8.3488   40.2341    6.3649 C.ar    1  UNL1        0.0041
     24 C           8.3951   39.3671    5.2722 C.ar    1  UNL1        0.0148
     25 N          10.3646   40.4728    4.4978 N.ar    1  UNL1       -0.2349
@<TRIPOS>BOND
     1    19    20    1
     2    21    25   ar
     3    21    17    1
     4    22    23   ar
     5    24    20   ar
     6     2     6   ar
     7     3     4   ar
     8     5     1   ar
     9     7     4    1
    10     7     8    1
    11     8     9    1
    12     9    10    1
    13    10    12    1
    14    11    12    1
    15    11     7    1
    16    17     1    1
    17    14    12    1
    18    14    13    1
    19    20    25   ar
    20    21    22   ar
    21    23    24   ar
    22     1     6   ar
    23     2     3   ar
    24     4     5   ar
    25    14    15    2
    26    14    16    2
    27    17    18    1
@<TRIPOS>MOLECULE
Molport-020-282-180 MCULE-3806633297 PubChem-110257665
 25 27 0 0 0
SMALL
GASTEIGER

@<TRIPOS>ATOM
      1 C          13.0160   42.0351    7.0620 C.ar    1  UNL1        0.1329
      2 C          15.1927   42.9909    6.9674 C.ar    1  UNL1        0.1000
      3 C          15.6600   42.0771    7.9131 C.ar    1  UNL1        0.0165
      4 C          14.7782   41.1245    8.4403 C.ar    1  UNL1       -0.0168
      5 C          13.4495   41.1052    8.0103 C.ar    1  UNL1        0.0302
      6 N          13.8941   42.9514    6.5658 N.ar    1  UNL1       -0.2291
      7 C          15.2305   40.1225    9.4539 C.3     1  UNL1        0.0402
      8 C          16.7062   40.2976    9.7814 C.3     1  UNL1        0.0073
      9 C          17.1025   39.2851   10.8409 C.3     1  UNL1        0.0195
     10 C          16.8202   37.8686   10.3388 C.3     1  UNL1        0.0954
     11 C          14.9546   38.6932    8.9764 C.3     1  UNL1        0.0997
     12 N          15.4212   37.6736    9.9277 N.3     1  UNL1       -0.1591
     13 C          12.8332   36.7084   10.9034 C.3     1  UNL1        0.1960
     14 S          14.3559   37.5415   11.3017 S.O2    1  UNL1        0.0457
     15 O          14.0318   38.9186   11.8087 O.2     1  UNL1       -0.1572
     16 O          15.0510   36.7753   12.3915 O.2     1  UNL1       -0.1572
     17 N          11.6503   42.0035    6.6306 N.pl3   1  UNL1       -0.2834
     18 H          11.1325   42.8347    6.7317 H       1  UNL1        0.1550
     19 C           8.8395   38.0331    7.2152 C.3     1  UNL1        0.0521
     20 C           9.6013   38.9461    6.3241 C.ar    1  UNL1        0.0608
     21 C          10.9655   40.8787    6.0664 C.ar    1  UNL1        0.1328
     22 C          11.0304   40.6660    4.6868 C.ar    1  UNL1        0.0344
     23 C          10.3660   39.5724    4.1287 C.ar    1  UNL1        0.0041
     24 C           9.6453   38.7040    4.9498 C.ar    1  UNL1        0.0148
     25 N          10.2555   40.0173    6.8483 N.ar    1  UNL1       -0.2349
@<TRIPOS>BOND
     1    19    20    1
     2    21    25   ar
     3    21    17    1
     4    22    23   ar
     5    24    20   ar
     6     2     6   ar
     7     3     4   ar
     8     5     1   ar
     9     7     4    1
    10     7     8    1
    11     8     9    1
    12     9    10    1
    13    10    12    1
    14    11    12    1
    15    11     7    1
    16    17     1    1
    17    14    12    1
    18    14    13    1
    19    20    25   ar
    20    21    22   ar
    21    23    24   ar
    22     1     6   ar
    23     2     3   ar
    24     4     5   ar
    25    14    15    2
    26    14    16    2
    27    17    18    1
@<TRIPOS>MOLECULE
Molport-020-282-180 MCULE-3806633297 PubChem-110257665
 25 27 0 0 0
SMALL
GASTEIGER

@<TRIPOS>ATOM
      1 C          14.7728   40.2188    9.6994 C.ar    1  UNL1        0.1329
      2 C          14.0626   39.0926   11.6711 C.ar    1  UNL1        0.1000
      3 C          12.7488   39.5175   11.4681 C.ar    1  UNL1        0.0165
      4 C          12.4493   40.3111   10.3530 C.ar    1  UNL1       -0.0168
      5 C          13.4686   40.6619    9.4650 C.ar    1  UNL1        0.0302
      6 N          15.0370   39.4484   10.7918 N.ar    1  UNL1       -0.2291
      7 C          11.0573   40.7898   10.0899 C.3     1  UNL1        0.0402
      8 C          10.7705   40.8563    8.5969 C.3     1  UNL1        0.0073
      9 C           9.3363   41.3080    8.3872 C.3     1  UNL1        0.0195
     10 C           9.1183   42.6710    9.0451 C.3     1  UNL1        0.0954
     11 C          10.8112   42.1535   10.7431 C.3     1  UNL1        0.0997
     12 N           9.4647   42.6801   10.4749 N.3     1  UNL1       -0.1591
     13 C           6.7406   41.6046   10.5419 C.3     1  UNL1        0.1960
     14 S           8.2558   41.8734   11.4383 S.O2    1  UNL1        0.0457
     15 O           7.9549   42.7072   12.6517 O.2     1  UNL1       -0.1572
     16 O           8.7909   40.5425   11.8858 O.2     1  UNL1       -0.1572
     17 N          15.8080   40.5867    8.7801 N.pl3   1  UNL1       -0.2834
     18 H          16.4518   39.8848    8.5309 H       1  UNL1        0.1550
     19 C          14.3013   44.0942    5.7086 C.3     1  UNL1        0.0521
     20 C          15.2860   43.5961    6.7038 C.ar    1  UNL1        0.0608
     21 C          15.9968   41.8778    8.1886 C.ar    1  UNL1        0.1328
     22 C          17.1063   42.6408    8.5625 C.ar    1  UNL1        0.0344
     23 C          17.2978   43.8999    7.9910 C.ar    1  UNL1        0.0041
     24 C          16.3834   44.3846    7.0546 C.ar    1  UNL1        0.0148
     25 N          15.1173   42.3719    7.2722 N.ar    1  UNL1       -0.2349
@<TRIPOS>BOND
     1    19    20    1
     2    21    25   ar
     3    21    17    1
     4    22    23   ar
     5    24    20   ar
     6     2     6   ar
     7     3     4   ar
     8     5     1   ar
     9     7     4    1
    10     7     8    1
    11     8     9    1
    12     9    10    1
    13    10    12    1
    14    11    12    1
    15    11     7    1
    16    17     1    1
    17    14    12    1
    18    14    13    1
    19    20    25   ar
    20    21    22   ar
    21    23    24   ar
    22     1     6   ar
    23     2     3   ar
    24     4     5   ar
    25    14    15    2
    26    14    16    2
    27    17    18    1
@<TRIPOS>MOLECULE
Molport-020-282-180 MCULE-3806633297 PubChem-110257665
 25 27 0 0 0
SMALL
GASTEIGER

@<TRIPOS>ATOM
      1 C          13.3611   40.2090    9.1950 C.ar    1  UNL1        0.1329
      2 C          11.6266   39.5290   10.6747 C.ar    1  UNL1        0.1000
      3 C          10.6918   39.5813    9.6397 C.ar    1  UNL1        0.0165
      4 C          11.1099   39.9574    8.3564 C.ar    1  UNL1       -0.0168
      5 C          12.4526   40.2720    8.1354 C.ar    1  UNL1        0.0302
      6 N          12.9280   39.8408   10.4334 N.ar    1  UNL1       -0.2291
      7 C          10.1479   40.0265    7.2137 C.3     1  UNL1        0.0402
      8 C           8.8444   40.6921    7.6304 C.3     1  UNL1        0.0073
      9 C           7.9220   40.7723    6.4271 C.3     1  UNL1        0.0195
     10 C           7.6651   39.3702    5.8737 C.3     1  UNL1        0.0954
     11 C           9.8766   38.6332    6.6375 C.3     1  UNL1        0.0997
     12 N           8.9031   38.6510    5.5354 N.3     1  UNL1       -0.1591
     13 C          11.0011   38.2643    3.5278 C.3     1  UNL1        0.1960
     14 S           9.6146   39.2474    4.0595 S.O2    1  UNL1        0.0457
     15 O          10.0807   40.6601    4.2723 O.2     1  UNL1       -0.1572
     16 O           8.5759   39.2385    2.9738 O.2     1  UNL1       -0.1572
     17 N          14.7350   40.5348    8.9534 N.pl3   1  UNL1       -0.2834
     18 H          15.4098   39.9258    9.3316 H       1  UNL1        0.1550
     19 C          18.3040   43.7586    8.0172 C.3     1  UNL1        0.0521
     20 C          16.9396   43.2385    7.7412 C.ar    1  UNL1        0.0608
     21 C          15.2217   41.6614    8.2143 C.ar    1  UNL1        0.1328
     22 C          14.3991   42.2468    7.2481 C.ar    1  UNL1        0.0344
     23 C          14.8654   43.3449    6.5234 C.ar    1  UNL1        0.0041
     24 C          16.1442   43.8473    6.7687 C.ar    1  UNL1        0.0148
     25 N          16.4668   42.1693    8.4364 N.ar    1  UNL1       -0.2349
@<TRIPOS>BOND
     1    19    20    1
     2    21    25   ar
     3    21    17    1
     4    22    23   ar
     5    24    20   ar
     6     2     6   ar
     7     3     4   ar
     8     5     1   ar
     9     7     4    1
    10     7     8    1
    11     8     9    1
    12     9    10    1
    13    10    12    1
    14    11    12    1
    15    11     7    1
    16    17     1    1
    17    14    12    1
    18    14    13    1
    19    20    25   ar
    20    21    22   ar
    21    23    24   ar
    22     1     6   ar
    23     2     3   ar
    24     4     5   ar
    25    14    15    2
    26    14    16    2
    27    17    18    1
