@<TRIPOS>MOLECULE
MolPort-002-774-359 36613522 CSSS00132994710 MCULE-5866297063 PubChem-44821590 ZINC000036613522 ZINC36613522
 31 34 0 0 0
SMALL
GASTEIGER

@<TRIPOS>ATOM
      1 C          12.9231   41.9101    7.2602 C.ar    1  UNL1        0.0597
      2 C          13.7755   42.8938    6.7468 C.ar    1  UNL1        0.0608
      3 C          13.5807   43.9750    5.8996 C.ar    1  UNL1        0.1233
      4 C          17.0960   44.3123    6.5305 C.3     1  UNL1        0.1554
      5 C          15.0983   42.9126    7.0641 C.ar    1  UNL1        0.1610
      6 C          14.8961   41.0067    8.4215 C.ar    1  UNL1        0.0831
      7 C          13.5115   40.9536    8.1140 C.ar    1  UNL1        0.0238
      8 N          14.7824   44.5930    5.7438 N.ar    1  UNL1       -0.1663
      9 N          15.6943   43.9411    6.4537 N.ar    1  UNL1       -0.2319
     10 N          15.6727   41.9984    7.8833 N.ar    1  UNL1       -0.2268
     11 C          15.5056   40.0006    9.3172 C.ar    1  UNL1        0.0179
     12 C          14.8235   38.8175    9.6421 C.ar    1  UNL1        0.0046
     13 C          15.4075   37.8724   10.4895 C.ar    1  UNL1        0.0369
     14 C          16.6850   38.0968   11.0259 C.ar    1  UNL1        0.1387
     15 C          17.3665   39.2739   10.7041 C.ar    1  UNL1        0.0369
     16 C          16.7820   40.2192    9.8564 C.ar    1  UNL1        0.0046
     17 C          18.5167   36.5197   11.5513 C.3     1  UNL1        0.2525
     18 O          17.2965   37.1716   11.8763 O.3     1  UNL1       -0.4714
     19 C          11.4799   41.8446    6.9472 C.2     1  UNL1        0.2498
     20 O          11.1115   41.6461    5.7574 O.2     1  UNL1       -0.2698
     21 N          10.5053   42.0051    7.9866 N.am    1  UNL1       -0.2779
     22 H          10.8412   42.1578    8.8993 H       1  UNL1        0.1553
     23 C           8.1742   41.7287    8.8142 C.ar    1  UNL1        0.1141
     24 C           9.0854   41.9620    7.8097 C.ar    1  UNL1        0.0908
     25 C           8.3813   42.1437    6.6333 C.ar    1  UNL1        0.1364
     26 N           6.9652   41.7711    8.2265 N.ar    1  UNL1       -0.2187
     27 N           7.0732   42.0201    6.9313 N.ar    1  UNL1       -0.1641
     28 C           5.6935   41.5921    8.9057 C.3     1  UNL1        0.2733
     29 O           5.2559   42.8131    9.4203 O.3     1  UNL1       -0.3311
     30 C           3.3203   41.4356    9.4121 C.3     1  UNL1        0.0347
     31 C           3.8828   42.8224    9.1808 C.3     1  UNL1        0.1446
@<TRIPOS>BOND
     1    30    31    1
     2    31    29    1
     3    28    29    1
     4    28    26    1
     5    24    21    1
     6    24    25   ar
     7    19     1    1
     8     2     3   ar
     9     4     9    1
    10     5     2   ar
    11     6    10   ar
    12     6    11    1
    13     7     1   ar
    14    12    13   ar
    15    14    18    1
    16    14    15   ar
    17    17    18    1
    18    16    11   ar
    19    26    23   ar
    20    26    27   ar
    21    21    19   am
    22     9     8   ar
    23     9     5   ar
    24    23    24   ar
    25    19    20    2
    26     1     2   ar
    27     3     8   ar
    28     5    10   ar
    29     6     7   ar
    30    11    12   ar
    31    13    14   ar
    32    15    16   ar
    33    25    27   ar
    34    21    22    1
@<TRIPOS>MOLECULE
MolPort-002-774-359 36613522 CSSS00132994710 MCULE-5866297063 PubChem-44821590 ZINC000036613522 ZINC36613522
 31 34 0 0 0
SMALL
GASTEIGER

@<TRIPOS>ATOM
      1 C          13.7286   35.2193    4.7179 C.ar    1  UNL1        0.0597
      2 C          13.6166   33.9494    4.1411 C.ar    1  UNL1        0.0608
      3 C          12.7774   33.4127    3.1755 C.ar    1  UNL1        0.1233
      4 C          14.7797   30.5312    3.9219 C.3     1  UNL1        0.1554
      5 C          14.4417   32.9336    4.5127 C.ar    1  UNL1        0.1610
      6 C          15.5762   34.2940    6.0549 C.ar    1  UNL1        0.0831
      7 C          14.7346   35.3784    5.6940 C.ar    1  UNL1        0.0238
      8 N          13.1288   32.1094    3.0083 N.ar    1  UNL1       -0.1663
      9 N          14.1380   31.8301    3.8232 N.ar    1  UNL1       -0.2319
     10 N          15.4110   33.0766    5.4492 N.ar    1  UNL1       -0.2268
     11 C          16.6284   34.4685    7.0788 C.ar    1  UNL1        0.0179
     12 C          17.6231   33.4951    7.2632 C.ar    1  UNL1        0.0046
     13 C          18.6135   33.6686    8.2334 C.ar    1  UNL1        0.0369
     14 C          18.6241   34.8204    9.0356 C.ar    1  UNL1        0.1387
     15 C          17.6350   35.7913    8.8541 C.ar    1  UNL1        0.0369
     16 C          16.6443   35.6174    7.8835 C.ar    1  UNL1        0.0046
     17 C          19.6500   36.1948   10.8180 C.3     1  UNL1        0.2525
     18 O          19.6007   35.0238   10.0144 O.3     1  UNL1       -0.4714
     19 C          12.8581   36.3560    4.3502 C.2     1  UNL1        0.2498
     20 O          12.3487   36.3998    3.1972 O.2     1  UNL1       -0.2698
     21 N          12.5937   37.4012    5.2955 N.am    1  UNL1       -0.2779
     22 H          13.0136   37.3231    6.1825 H       1  UNL1        0.1553
     23 C          11.7091   39.6543    5.8759 C.ar    1  UNL1        0.1141
     24 C          11.7711   38.5486    5.0588 C.ar    1  UNL1        0.0908
     25 C          10.9115   38.7590    3.9960 C.ar    1  UNL1        0.1364
     26 N          10.8257   40.4865    5.2964 N.ar    1  UNL1       -0.2187
     27 N          10.3463   39.9686    4.1769 N.ar    1  UNL1       -0.1641
     28 C          10.4473   41.7951    5.8014 C.3     1  UNL1        0.2733
     29 O           9.8680   41.6656    7.0642 O.3     1  UNL1       -0.3311
     30 C           8.0415   40.3104    6.3775 C.3     1  UNL1        0.0347
     31 C           8.4952   41.6845    6.8236 C.3     1  UNL1        0.1446
@<TRIPOS>BOND
     1    30    31    1
     2    31    29    1
     3    28    29    1
     4    28    26    1
     5    24    21    1
     6    24    25   ar
     7    19     1    1
     8     2     3   ar
     9     4     9    1
    10     5     2   ar
    11     6    10   ar
    12     6    11    1
    13     7     1   ar
    14    12    13   ar
    15    14    18    1
    16    14    15   ar
    17    17    18    1
    18    16    11   ar
    19    26    23   ar
    20    26    27   ar
    21    21    19   am
    22     9     8   ar
    23     9     5   ar
    24    23    24   ar
    25    19    20    2
    26     1     2   ar
    27     3     8   ar
    28     5    10   ar
    29     6     7   ar
    30    11    12   ar
    31    13    14   ar
    32    15    16   ar
    33    25    27   ar
    34    21    22    1
@<TRIPOS>MOLECULE
MolPort-002-774-359 36613522 CSSS00132994710 MCULE-5866297063 PubChem-44821590 ZINC000036613522 ZINC36613522
 31 34 0 0 0
SMALL
GASTEIGER

@<TRIPOS>ATOM
      1 C          10.9090   41.4640    6.9378 C.ar    1  UNL1        0.0597
      2 C           9.8071   40.9314    6.2594 C.ar    1  UNL1        0.0608
      3 C           9.5240   40.7249    4.9170 C.ar    1  UNL1        0.1233
      4 C           6.5038   39.4626    6.3847 C.3     1  UNL1        0.1554
      5 C           8.7150   40.4836    6.9357 C.ar    1  UNL1        0.1610
      6 C           9.6614   41.0301    9.0145 C.ar    1  UNL1        0.0831
      7 C          10.8183   41.5073    8.3449 C.ar    1  UNL1        0.0238
      8 N           8.2857   40.1672    4.8423 N.ar    1  UNL1       -0.1663
      9 N           7.8051   40.0255    6.0708 N.ar    1  UNL1       -0.2319
     10 N           8.6185   40.5208    8.2870 N.ar    1  UNL1       -0.2268
     11 C           9.5737   41.0787   10.4896 C.ar    1  UNL1        0.0179
     12 C          10.6873   40.7741   11.2882 C.ar    1  UNL1        0.0046
     13 C          10.5950   40.8227   12.6816 C.ar    1  UNL1        0.0369
     14 C           9.3851   41.1773   13.2986 C.ar    1  UNL1        0.1387
     15 C           8.2747   41.4811   12.5059 C.ar    1  UNL1        0.0369
     16 C           8.3673   41.4324   11.1120 C.ar    1  UNL1        0.0046
     17 C           8.2553   42.0020   15.3386 C.3     1  UNL1        0.2525
     18 O           9.2601   41.2351   14.6893 O.3     1  UNL1       -0.4714
     19 C          12.1189   41.9639    6.2515 C.2     1  UNL1        0.2498
     20 O          12.4339   41.4906    5.1257 O.2     1  UNL1       -0.2698
     21 N          12.9291   42.9790    6.8593 N.am    1  UNL1       -0.2779
     22 H          12.6429   43.3174    7.7383 H       1  UNL1        0.1553
     23 C          15.3974   43.1107    6.5665 C.ar    1  UNL1        0.1141
     24 C          14.1188   43.5419    6.2963 C.ar    1  UNL1        0.0908
     25 C          14.2066   44.5913    5.3997 C.ar    1  UNL1        0.1364
     26 N          16.2092   43.9006    5.8413 N.ar    1  UNL1       -0.2187
     27 N          15.5149   44.7828    5.1407 N.ar    1  UNL1       -0.1641
     28 C          17.6582   43.8039    5.7988 C.3     1  UNL1        0.2733
     29 O          18.2062   44.4105    6.9296 O.3     1  UNL1       -0.3311
     30 C          17.5418   43.8461    9.1397 C.3     1  UNL1        0.0347
     31 C          18.2557   43.3947    7.8829 C.3     1  UNL1        0.1446
@<TRIPOS>BOND
     1    30    31    1
     2    31    29    1
     3    28    29    1
     4    28    26    1
     5    24    21    1
     6    24    25   ar
     7    19     1    1
     8     2     3   ar
     9     4     9    1
    10     5     2   ar
    11     6    10   ar
    12     6    11    1
    13     7     1   ar
    14    12    13   ar
    15    14    18    1
    16    14    15   ar
    17    17    18    1
    18    16    11   ar
    19    26    23   ar
    20    26    27   ar
    21    21    19   am
    22     9     8   ar
    23     9     5   ar
    24    23    24   ar
    25    19    20    2
    26     1     2   ar
    27     3     8   ar
    28     5    10   ar
    29     6     7   ar
    30    11    12   ar
    31    13    14   ar
    32    15    16   ar
    33    25    27   ar
    34    21    22    1
@<TRIPOS>MOLECULE
MolPort-002-774-359 36613522 CSSS00132994710 MCULE-5866297063 PubChem-44821590 ZINC000036613522 ZINC36613522
 31 34 0 0 0
SMALL
GASTEIGER

@<TRIPOS>ATOM
      1 C          13.3048   41.3301    7.6499 C.ar    1  UNL1        0.0597
      2 C          14.0413   42.4443    7.2327 C.ar    1  UNL1        0.0608
      3 C          13.7249   43.5697    6.4858 C.ar    1  UNL1        0.1233
      4 C          17.1842   44.2339    7.1651 C.3     1  UNL1        0.1554
      5 C          15.3553   42.5799    7.5581 C.ar    1  UNL1        0.1610
      6 C          15.3703   40.5481    8.7361 C.ar    1  UNL1        0.0831
      7 C          13.9987   40.3708    8.4170 C.ar    1  UNL1        0.0238
      8 N          14.8504   44.3280    6.3936 N.ar    1  UNL1       -0.1663
      9 N          15.8316   43.7189    7.0469 N.ar    1  UNL1       -0.2319
     10 N          16.0305   41.6641    8.2944 N.ar    1  UNL1       -0.2268
     11 C          16.0909   39.5383    9.5405 C.ar    1  UNL1        0.0179
     12 C          17.2816   39.8649   10.2086 C.ar    1  UNL1        0.0046
     13 C          17.9557   38.9040   10.9665 C.ar    1  UNL1        0.0369
     14 C          17.4482   37.5992   11.0679 C.ar    1  UNL1        0.1387
     15 C          16.2628   37.2712   10.4038 C.ar    1  UNL1        0.0369
     16 C          15.5887   38.2328    9.6456 C.ar    1  UNL1        0.0046
     17 C          19.3606   36.0771   11.4480 C.3     1  UNL1        0.2525
     18 O          18.0984   36.6153   11.8178 O.3     1  UNL1       -0.4714
     19 C          11.8764   41.1346    7.3239 C.2     1  UNL1        0.2498
     20 O          11.0198   41.9398    7.7807 O.2     1  UNL1       -0.2698
     21 N          11.4661   40.0390    6.4948 N.am    1  UNL1       -0.2779
     22 H          12.1707   39.4374    6.1619 H       1  UNL1        0.1553
     23 C           9.0022   40.0669    6.8477 C.ar    1  UNL1        0.1141
     24 C          10.1188   39.7457    6.1101 C.ar    1  UNL1        0.0908
     25 C           9.6960   39.1063    4.9589 C.ar    1  UNL1        0.1364
     26 N           7.9535   39.6170    6.1360 N.ar    1  UNL1       -0.2187
     27 N           8.3510   39.0468    5.0098 N.ar    1  UNL1       -0.1641
     28 C           6.5586   39.7468    6.5206 C.3     1  UNL1        0.2733
     29 O           6.4515   40.5717    7.6410 O.3     1  UNL1       -0.3311
     30 C           6.1160   42.8568    8.1981 C.3     1  UNL1        0.0347
     31 C           6.5360   41.8666    7.1321 C.3     1  UNL1        0.1446
@<TRIPOS>BOND
     1    30    31    1
     2    31    29    1
     3    28    29    1
     4    28    26    1
     5    24    21    1
     6    24    25   ar
     7    19     1    1
     8     2     3   ar
     9     4     9    1
    10     5     2   ar
    11     6    10   ar
    12     6    11    1
    13     7     1   ar
    14    12    13   ar
    15    14    18    1
    16    14    15   ar
    17    17    18    1
    18    16    11   ar
    19    26    23   ar
    20    26    27   ar
    21    21    19   am
    22     9     8   ar
    23     9     5   ar
    24    23    24   ar
    25    19    20    2
    26     1     2   ar
    27     3     8   ar
    28     5    10   ar
    29     6     7   ar
    30    11    12   ar
    31    13    14   ar
    32    15    16   ar
    33    25    27   ar
    34    21    22    1
@<TRIPOS>MOLECULE
MolPort-002-774-359 36613522 CSSS00132994710 MCULE-5866297063 PubChem-44821590 ZINC000036613522 ZINC36613522
 31 34 0 0 0
SMALL
GASTEIGER

@<TRIPOS>ATOM
      1 C           5.6622   42.1225   10.6916 C.ar    1  UNL1        0.0597
      2 C           5.4086   42.8884    9.5485 C.ar    1  UNL1        0.0608
      3 C           6.1802   43.2493    8.4534 C.ar    1  UNL1        0.1233
      4 C           3.1010   44.8810    7.6018 C.3     1  UNL1        0.1554
      5 C           4.1908   43.4580    9.3403 C.ar    1  UNL1        0.1610
      6 C           3.3368   42.5899   11.3485 C.ar    1  UNL1        0.0831
      7 C           4.5933   41.9800   11.6011 C.ar    1  UNL1        0.0238
      8 N           5.4024   44.0134    7.6402 N.ar    1  UNL1       -0.1663
      9 N           4.1995   44.1332    8.1872 N.ar    1  UNL1       -0.2319
     10 N           3.1579   43.3268   10.2078 N.ar    1  UNL1       -0.2268
     11 C           2.2211   42.4359   12.3064 C.ar    1  UNL1        0.0179
     12 C           1.5914   43.5590   12.8658 C.ar    1  UNL1        0.0046
     13 C           0.5378   43.4037   13.7703 C.ar    1  UNL1        0.0369
     14 C           0.0972   42.1204   14.1298 C.ar    1  UNL1        0.1387
     15 C           0.7223   41.0004   13.5743 C.ar    1  UNL1        0.0369
     16 C           1.7764   41.1561   12.6695 C.ar    1  UNL1        0.0046
     17 C          -0.9251   42.4344   16.3602 C.3     1  UNL1        0.2525
     18 O          -0.9537   41.9313   15.0314 O.3     1  UNL1       -0.4714
     19 C           6.9663   41.4827   10.9655 C.2     1  UNL1        0.2498
     20 O           7.1249   40.8292   12.0325 O.2     1  UNL1       -0.2698
     21 N           8.0434   41.6027   10.0266 N.am    1  UNL1       -0.2779
     22 H           7.8718   42.1225    9.2083 H       1  UNL1        0.1553
     23 C           9.9358   40.1664    9.2839 C.ar    1  UNL1        0.1141
     24 C           9.3470   41.0310   10.1782 C.ar    1  UNL1        0.0908
     25 C          10.2359   41.2346   11.2180 C.ar    1  UNL1        0.1364
     26 N          11.1421   39.8731    9.8010 N.ar    1  UNL1       -0.2187
     27 N          11.3350   40.5034   10.9486 N.ar    1  UNL1       -0.1641
     28 C          12.1292   39.0000    9.1895 C.3     1  UNL1        0.2733
     29 O          11.6647   37.6842    9.1940 O.3     1  UNL1       -0.3311
     30 C          12.0477   35.8499   10.6546 C.3     1  UNL1        0.0347
     31 C          12.6695   36.9601    9.8335 C.3     1  UNL1        0.1446
@<TRIPOS>BOND
     1    30    31    1
     2    31    29    1
     3    28    29    1
     4    28    26    1
     5    24    21    1
     6    24    25   ar
     7    19     1    1
     8     2     3   ar
     9     4     9    1
    10     5     2   ar
    11     6    10   ar
    12     6    11    1
    13     7     1   ar
    14    12    13   ar
    15    14    18    1
    16    14    15   ar
    17    17    18    1
    18    16    11   ar
    19    26    23   ar
    20    26    27   ar
    21    21    19   am
    22     9     8   ar
    23     9     5   ar
    24    23    24   ar
    25    19    20    2
    26     1     2   ar
    27     3     8   ar
    28     5    10   ar
    29     6     7   ar
    30    11    12   ar
    31    13    14   ar
    32    15    16   ar
    33    25    27   ar
    34    21    22    1
@<TRIPOS>MOLECULE
MolPort-002-774-359 36613522 CSSS00132994710 MCULE-5866297063 PubChem-44821590 ZINC000036613522 ZINC36613522
 31 34 0 0 0
SMALL
GASTEIGER

@<TRIPOS>ATOM
      1 C           8.8867   41.1154    9.4260 C.ar    1  UNL1        0.0597
      2 C           8.8472   41.5842    8.1082 C.ar    1  UNL1        0.0608
      3 C           9.8028   41.6982    7.1089 C.ar    1  UNL1        0.1233
      4 C           6.9433   43.0009    5.3782 C.3     1  UNL1        0.1554
      5 C           7.6928   42.0560    7.5646 C.ar    1  UNL1        0.1610
      6 C           6.4897   41.6614    9.5427 C.ar    1  UNL1        0.0831
      7 C           7.6738   41.1618   10.1449 C.ar    1  UNL1        0.0238
      8 N           9.1898   42.2288    6.0168 N.ar    1  UNL1       -0.1663
      9 N           7.9120   42.4414    6.3041 N.ar    1  UNL1       -0.2319
     10 N           6.5229   42.1047    8.2470 N.ar    1  UNL1       -0.2268
     11 C           5.2222   41.7070   10.3026 C.ar    1  UNL1        0.0179
     12 C           4.9749   40.8017   11.3466 C.ar    1  UNL1        0.0046
     13 C           3.7741   40.8523   12.0592 C.ar    1  UNL1        0.0369
     14 C           2.8004   41.8109   11.7378 C.ar    1  UNL1        0.1387
     15 C           3.0440   42.7136   10.6988 C.ar    1  UNL1        0.0369
     16 C           4.2454   42.6627    9.9860 C.ar    1  UNL1        0.0046
     17 C           1.2283   43.0108   13.2234 C.3     1  UNL1        0.2525
     18 O           1.5895   41.8877   12.4311 O.3     1  UNL1       -0.4714
     19 C          10.1136   40.5930   10.0638 C.2     1  UNL1        0.2498
     20 O          10.6875   41.2748   10.9562 O.2     1  UNL1       -0.2698
     21 N          10.6482   39.3213    9.6725 N.am    1  UNL1       -0.2779
     22 H          10.1653   38.8259    8.9721 H       1  UNL1        0.1553
     23 C          12.8780   39.3948   10.7762 C.ar    1  UNL1        0.1141
     24 C          11.8244   38.7109   10.2140 C.ar    1  UNL1        0.0908
     25 C          12.1152   37.3602   10.2758 C.ar    1  UNL1        0.1364
     26 N          13.7634   38.4548   11.1523 N.ar    1  UNL1       -0.2187
     27 N          13.3216   37.2412   10.8639 N.ar    1  UNL1       -0.1641
     28 C          15.0334   38.7111   11.8094 C.3     1  UNL1        0.2733
     29 O          15.7540   37.5219   11.9266 O.3     1  UNL1       -0.3311
     30 C          17.2505   39.1985   11.1557 C.3     1  UNL1        0.0347
     31 C          16.8956   37.7264   11.1533 C.3     1  UNL1        0.1446
@<TRIPOS>BOND
     1    30    31    1
     2    31    29    1
     3    28    29    1
     4    28    26    1
     5    24    21    1
     6    24    25   ar
     7    19     1    1
     8     2     3   ar
     9     4     9    1
    10     5     2   ar
    11     6    10   ar
    12     6    11    1
    13     7     1   ar
    14    12    13   ar
    15    14    18    1
    16    14    15   ar
    17    17    18    1
    18    16    11   ar
    19    26    23   ar
    20    26    27   ar
    21    21    19   am
    22     9     8   ar
    23     9     5   ar
    24    23    24   ar
    25    19    20    2
    26     1     2   ar
    27     3     8   ar
    28     5    10   ar
    29     6     7   ar
    30    11    12   ar
    31    13    14   ar
    32    15    16   ar
    33    25    27   ar
    34    21    22    1
@<TRIPOS>MOLECULE
MolPort-002-774-359 36613522 CSSS00132994710 MCULE-5866297063 PubChem-44821590 ZINC000036613522 ZINC36613522
 31 34 0 0 0
SMALL
GASTEIGER

@<TRIPOS>ATOM
      1 C          13.5608   37.0374    3.9564 C.ar    1  UNL1        0.0597
      2 C          14.8407   36.7327    3.4801 C.ar    1  UNL1        0.0608
      3 C          15.9225   37.5099    3.0924 C.ar    1  UNL1        0.1233
      4 C          17.2867   34.2378    2.5434 C.3     1  UNL1        0.1554
      5 C          15.2402   35.4429    3.3147 C.ar    1  UNL1        0.1610
      6 C          13.1765   34.6088    4.0639 C.ar    1  UNL1        0.0831
      7 C          12.7232   35.9408    4.2497 C.ar    1  UNL1        0.0238
      8 N          16.9178   36.6639    2.7134 N.ar    1  UNL1       -0.1663
      9 N          16.4936   35.4144    2.8523 N.ar    1  UNL1       -0.2319
     10 N          14.4431   34.3829    3.5937 N.ar    1  UNL1       -0.2268
     11 C          12.2928   33.4645    4.3736 C.ar    1  UNL1        0.0179
     12 C          10.8964   33.6079    4.3595 C.ar    1  UNL1        0.0046
     13 C          10.0692   32.5209    4.6535 C.ar    1  UNL1        0.0369
     14 C          10.6272   31.2716    4.9668 C.ar    1  UNL1        0.1387
     15 C          12.0172   31.1259    4.9815 C.ar    1  UNL1        0.0369
     16 C          12.8445   32.2136    4.6874 C.ar    1  UNL1        0.0046
     17 C           8.8634   30.1739    6.3094 C.3     1  UNL1        0.2525
     18 O           9.8275   30.1650    5.2654 O.3     1  UNL1       -0.4714
     19 C          13.0775   38.4203    4.1540 C.2     1  UNL1        0.2498
     20 O          12.9852   39.1930    3.1614 O.2     1  UNL1       -0.2698
     21 N          12.7160   38.8812    5.4627 N.am    1  UNL1       -0.2779
     22 H          12.8048   38.2418    6.2060 H       1  UNL1        0.1553
     23 C          12.6960   40.9673    6.8205 C.ar    1  UNL1        0.1141
     24 C          12.2367   40.1922    5.7803 C.ar    1  UNL1        0.0908
     25 C          11.2539   40.9079    5.1209 C.ar    1  UNL1        0.1364
     26 N          11.9874   42.1090    6.7648 N.ar    1  UNL1       -0.2187
     27 N          11.1291   42.0887    5.7577 N.ar    1  UNL1       -0.1641
     28 C          12.1405   43.2383    7.6658 C.3     1  UNL1        0.2733
     29 O          11.3823   43.0302    8.8185 O.3     1  UNL1       -0.3311
     30 C          10.7695   41.2663   10.2874 C.3     1  UNL1        0.0347
     31 C          11.7734   41.7717    9.2726 C.3     1  UNL1        0.1446
@<TRIPOS>BOND
     1    30    31    1
     2    31    29    1
     3    28    29    1
     4    28    26    1
     5    24    21    1
     6    24    25   ar
     7    19     1    1
     8     2     3   ar
     9     4     9    1
    10     5     2   ar
    11     6    10   ar
    12     6    11    1
    13     7     1   ar
    14    12    13   ar
    15    14    18    1
    16    14    15   ar
    17    17    18    1
    18    16    11   ar
    19    26    23   ar
    20    26    27   ar
    21    21    19   am
    22     9     8   ar
    23     9     5   ar
    24    23    24   ar
    25    19    20    2
    26     1     2   ar
    27     3     8   ar
    28     5    10   ar
    29     6     7   ar
    30    11    12   ar
    31    13    14   ar
    32    15    16   ar
    33    25    27   ar
    34    21    22    1
@<TRIPOS>MOLECULE
MolPort-002-774-359 36613522 CSSS00132994710 MCULE-5866297063 PubChem-44821590 ZINC000036613522 ZINC36613522
 31 34 0 0 0
SMALL
GASTEIGER

@<TRIPOS>ATOM
      1 C          12.6206   40.9259    9.1227 C.ar    1  UNL1        0.0597
      2 C          13.0324   41.9020    8.2086 C.ar    1  UNL1        0.0608
      3 C          12.3605   42.8891    7.5023 C.ar    1  UNL1        0.1233
      4 C          15.7046   43.4679    6.3400 C.3     1  UNL1        0.1554
      5 C          14.3386   42.0196    7.8470 C.ar    1  UNL1        0.1610
      6 C          14.9811   40.2382    9.2362 C.ar    1  UNL1        0.0831
      7 C          13.6286   40.0841    9.6381 C.ar    1  UNL1        0.0238
      8 N          13.2811   43.5528    6.7526 N.ar    1  UNL1       -0.1663
      9 N          14.4758   43.0178    6.9693 N.ar    1  UNL1       -0.2319
     10 N          15.3140   41.2160    8.3365 N.ar    1  UNL1       -0.2268
     11 C          16.0320   39.3522    9.7807 C.ar    1  UNL1        0.0179
     12 C          15.7885   37.9843    9.9817 C.ar    1  UNL1        0.0046
     13 C          16.7877   37.1546   10.4968 C.ar    1  UNL1        0.0369
     14 C          18.0481   37.6814   10.8195 C.ar    1  UNL1        0.1387
     15 C          18.2934   39.0430   10.6205 C.ar    1  UNL1        0.0369
     16 C          17.2935   39.8728   10.1052 C.ar    1  UNL1        0.0046
     17 C          19.6505   35.8095   10.6027 C.3     1  UNL1        0.2525
     18 O          19.0685   36.8784   11.3364 O.3     1  UNL1       -0.4714
     19 C          11.2154   40.7559    9.5487 C.2     1  UNL1        0.2498
     20 O          10.5540   39.7688    9.1259 O.2     1  UNL1       -0.2698
     21 N          10.6076   41.7046   10.4356 N.am    1  UNL1       -0.2779
     22 H          11.1637   42.4583   10.7389 H       1  UNL1        0.1553
     23 C           8.1402   41.8612   10.1478 C.ar    1  UNL1        0.1141
     24 C           9.2608   41.6487   10.9176 C.ar    1  UNL1        0.0908
     25 C           8.8428   41.3762   12.2075 C.ar    1  UNL1        0.1364
     26 N           7.0936   41.7178   10.9802 N.ar    1  UNL1       -0.2187
     27 N           7.4964   41.4263   12.2066 N.ar    1  UNL1       -0.1641
     28 C           5.6961   41.8402   10.6026 C.3     1  UNL1        0.2733
     29 O           4.8919   41.7891   11.7418 O.3     1  UNL1       -0.3311
     30 C           3.5218   41.0246    9.9578 C.3     1  UNL1        0.0347
     31 C           3.5874   41.8097   11.2510 C.3     1  UNL1        0.1446
@<TRIPOS>BOND
     1    30    31    1
     2    31    29    1
     3    28    29    1
     4    28    26    1
     5    24    21    1
     6    24    25   ar
     7    19     1    1
     8     2     3   ar
     9     4     9    1
    10     5     2   ar
    11     6    10   ar
    12     6    11    1
    13     7     1   ar
    14    12    13   ar
    15    14    18    1
    16    14    15   ar
    17    17    18    1
    18    16    11   ar
    19    26    23   ar
    20    26    27   ar
    21    21    19   am
    22     9     8   ar
    23     9     5   ar
    24    23    24   ar
    25    19    20    2
    26     1     2   ar
    27     3     8   ar
    28     5    10   ar
    29     6     7   ar
    30    11    12   ar
    31    13    14   ar
    32    15    16   ar
    33    25    27   ar
    34    21    22    1
@<TRIPOS>MOLECULE
MolPort-002-774-359 36613522 CSSS00132994710 MCULE-5866297063 PubChem-44821590 ZINC000036613522 ZINC36613522
 31 34 0 0 0
SMALL
GASTEIGER

@<TRIPOS>ATOM
      1 C          13.6945   41.6424    8.6103 C.ar    1  UNL1        0.0597
      2 C          14.4383   42.5271    7.8218 C.ar    1  UNL1        0.0608
      3 C          14.0988   43.6213    7.0392 C.ar    1  UNL1        0.1233
      4 C          17.6496   43.5780    6.5301 C.3     1  UNL1        0.1554
      5 C          15.7885   42.4036    7.7099 C.ar    1  UNL1        0.1610
      6 C          15.8293   40.5335    9.1302 C.ar    1  UNL1        0.0831
      7 C          14.4204   40.6297    9.2719 C.ar    1  UNL1        0.0238
      8 N          15.2472   44.1054    6.4945 N.ar    1  UNL1       -0.1663
      9 N          16.2644   43.3603    6.9076 N.ar    1  UNL1       -0.2319
     10 N          16.4946   41.4344    8.3414 N.ar    1  UNL1       -0.2268
     11 C          16.5833   39.4694    9.8268 C.ar    1  UNL1        0.0179
     12 C          17.9671   39.5838   10.0336 C.ar    1  UNL1        0.0046
     13 C          18.6713   38.5730   10.6929 C.ar    1  UNL1        0.0369
     14 C          18.0009   37.4301   11.1562 C.ar    1  UNL1        0.1387
     15 C          16.6230   37.3136   10.9517 C.ar    1  UNL1        0.0369
     16 C          15.9189   38.3249   10.2921 C.ar    1  UNL1        0.0046
     17 C          19.6525   35.5890   11.1821 C.3     1  UNL1        0.2525
     18 O          18.6761   36.4017   11.8191 O.3     1  UNL1       -0.4714
     19 C          12.2273   41.7326    8.7654 C.2     1  UNL1        0.2498
     20 O          11.7036   41.4635    9.8808 O.2     1  UNL1       -0.2698
     21 N          11.4045   42.1230    7.6579 N.am    1  UNL1       -0.2779
     22 H          11.8587   42.3232    6.8077 H       1  UNL1        0.1553
     23 C           9.1376   41.8688    6.6617 C.ar    1  UNL1        0.1141
     24 C           9.9785   42.2464    7.6835 C.ar    1  UNL1        0.0908
     25 C           9.1990   42.7500    8.7090 C.ar    1  UNL1        0.1364
     26 N           7.8945   42.1534    7.0887 N.ar    1  UNL1       -0.2187
     27 N           7.9158   42.6746    8.3049 N.ar    1  UNL1       -0.1641
     28 C           6.6726   41.9104    6.3414 C.3     1  UNL1        0.2733
     29 O           6.8439   40.8113    5.4989 O.3     1  UNL1       -0.3311
     30 C           7.6679   38.7810    6.4172 C.3     1  UNL1        0.0347
     31 C           6.4827   39.7132    6.2777 C.3     1  UNL1        0.1446
@<TRIPOS>BOND
     1    30    31    1
     2    31    29    1
     3    28    29    1
     4    28    26    1
     5    24    21    1
     6    24    25   ar
     7    19     1    1
     8     2     3   ar
     9     4     9    1
    10     5     2   ar
    11     6    10   ar
    12     6    11    1
    13     7     1   ar
    14    12    13   ar
    15    14    18    1
    16    14    15   ar
    17    17    18    1
    18    16    11   ar
    19    26    23   ar
    20    26    27   ar
    21    21    19   am
    22     9     8   ar
    23     9     5   ar
    24    23    24   ar
    25    19    20    2
    26     1     2   ar
    27     3     8   ar
    28     5    10   ar
    29     6     7   ar
    30    11    12   ar
    31    13    14   ar
    32    15    16   ar
    33    25    27   ar
    34    21    22    1
@<TRIPOS>MOLECULE
MolPort-002-774-359 36613522 CSSS00132994710 MCULE-5866297063 PubChem-44821590 ZINC000036613522 ZINC36613522
 31 34 0 0 0
SMALL
GASTEIGER

@<TRIPOS>ATOM
      1 C           9.4990   41.3132    7.1496 C.ar    1  UNL1        0.0597
      2 C           9.3676   40.3617    6.1321 C.ar    1  UNL1        0.0608
      3 C           8.2953   39.6260    5.6489 C.ar    1  UNL1        0.1233
      4 C          10.8937   38.4175    3.4908 C.3     1  UNL1        0.1554
      5 C          10.4367   39.9859    5.3793 C.ar    1  UNL1        0.1610
      6 C          11.8798   41.4326    6.5371 C.ar    1  UNL1        0.0831
      7 C          10.7890   41.8503    7.3434 C.ar    1  UNL1        0.0238
      8 N           8.7591   38.8459    4.6358 N.ar    1  UNL1       -0.1663
      9 N          10.0573   39.0721    4.4811 N.ar    1  UNL1       -0.2319
     10 N          11.6795   40.4961    5.5577 N.ar    1  UNL1       -0.2268
     11 C          13.2289   42.0001    6.7462 C.ar    1  UNL1        0.0179
     12 C          13.7053   43.0435    5.9369 C.ar    1  UNL1        0.0046
     13 C          14.9818   43.5735    6.1420 C.ar    1  UNL1        0.0369
     14 C          15.8028   43.0669    7.1616 C.ar    1  UNL1        0.1387
     15 C          15.3310   42.0280    7.9690 C.ar    1  UNL1        0.0369
     16 C          14.0540   41.4980    7.7635 C.ar    1  UNL1        0.0046
     17 C          17.6695   43.6228    8.6863 C.3     1  UNL1        0.2525
     18 O          17.0841   43.5751    7.3923 O.3     1  UNL1       -0.4714
     19 C           8.3706   41.7560    7.9956 C.2     1  UNL1        0.2498
     20 O           8.3842   41.5017    9.2308 O.2     1  UNL1       -0.2698
     21 N           7.2688   42.4692    7.4183 N.am    1  UNL1       -0.2779
     22 H           7.3032   42.6442    6.4500 H       1  UNL1        0.1553
     23 C           5.3009   42.1702    8.9128 C.ar    1  UNL1        0.1141
     24 C           6.1231   42.9483    8.1302 C.ar    1  UNL1        0.0908
     25 C           5.6413   44.2442    8.1682 C.ar    1  UNL1        0.1364
     26 N           4.3585   43.0022    9.3908 N.ar    1  UNL1       -0.2187
     27 N           4.5504   44.2384    8.9590 N.ar    1  UNL1       -0.1641
     28 C           3.2758   42.6228   10.2821 C.3     1  UNL1        0.2733
     29 O           2.7440   41.3954    9.8848 O.3     1  UNL1       -0.3311
     30 C           3.7078   40.6105   11.9096 C.3     1  UNL1        0.0347
     31 C           3.6229   40.4475   10.4065 C.3     1  UNL1        0.1446
@<TRIPOS>BOND
     1    30    31    1
     2    31    29    1
     3    28    29    1
     4    28    26    1
     5    24    21    1
     6    24    25   ar
     7    19     1    1
     8     2     3   ar
     9     4     9    1
    10     5     2   ar
    11     6    10   ar
    12     6    11    1
    13     7     1   ar
    14    12    13   ar
    15    14    18    1
    16    14    15   ar
    17    17    18    1
    18    16    11   ar
    19    26    23   ar
    20    26    27   ar
    21    21    19   am
    22     9     8   ar
    23     9     5   ar
    24    23    24   ar
    25    19    20    2
    26     1     2   ar
    27     3     8   ar
    28     5    10   ar
    29     6     7   ar
    30    11    12   ar
    31    13    14   ar
    32    15    16   ar
    33    25    27   ar
    34    21    22    1
