@<TRIPOS>MOLECULE
MolPort-007-723-529 6818342 CHEMBL1552869 ChemDiv-E157-6111 MCULE-1500953579 PubChem-16017440 ZINC000006818342 ZINC06818342
 27 29 0 0 0
SMALL
GASTEIGER

@<TRIPOS>ATOM
      1 C          11.5251   41.7665    9.4877 C.ar    1  UNL1        0.2593
      2 C           9.3438   42.5453   10.0653 C.ar    1  UNL1        0.1893
      3 N          11.4596   43.1107    9.6076 N.ar    1  UNL1       -0.1187
      4 N          10.2431   43.5462    9.9289 N.ar    1  UNL1       -0.1239
      5 S          10.0369   41.0371    9.7896 S.2     1  UNL1       -0.0102
      6 C           6.8570   42.3066    9.6180 C.2     1  UNL1        0.2271
      7 N           7.9686   42.7385   10.4092 N.am    1  UNL1       -0.2627
      8 O           7.0348   41.6978    8.5271 O.2     1  UNL1       -0.2747
      9 H           7.7721   43.2038   11.2542 H       1  UNL1        0.1568
     10 C           5.4727   42.5809   10.1050 C.3     1  UNL1        0.0769
     11 C           5.0991   41.6312   11.2559 C.3     1  UNL1        0.0091
     12 C           4.2187   40.4806   10.7740 C.3     1  UNL1        0.0005
     13 C           2.9070   41.0009   10.1703 C.3     1  UNL1        0.0000
     14 C           3.0525   42.3452    9.4419 C.3     1  UNL1        0.0005
     15 C           4.4759   42.5618    8.9364 C.3     1  UNL1        0.0091
     16 S          12.9959   40.8955    9.1040 S.O2    1  UNL1        0.1010
     17 O          13.8648   41.7654    8.2385 O.2     1  UNL1       -0.1477
     18 O          13.7429   40.5694   10.3673 O.2     1  UNL1       -0.1477
     19 C          11.8707   39.5219    7.0138 C.3     1  UNL1        0.1392
     20 N          12.6022   39.4214    8.2699 N.pl3   1  UNL1       -0.1870
     21 C          11.4815   35.4744   11.0762 C.3     1  UNL1        0.0311
     22 C          12.4235   36.1898   10.1764 C.ar    1  UNL1       -0.0206
     23 C          13.6529   35.6122    9.8508 C.ar    1  UNL1       -0.0042
     24 C          14.5377   36.2854    9.0048 C.ar    1  UNL1        0.0010
     25 C          14.1923   37.5360    8.4849 C.ar    1  UNL1        0.0161
     26 C          12.9607   38.1312    8.8056 C.ar    1  UNL1        0.0686
     27 C          12.0795   37.4412    9.6566 C.ar    1  UNL1        0.0119
@<TRIPOS>BOND
     1    21    22    1
     2    23    24   ar
     3    25    26   ar
     4    26    20    1
     5    19    20    1
     6     1     5   ar
     7     2     7    1
     8     2     5   ar
     9    10     6    1
    10    10    11    1
    11    11    12    1
    12    12    13    1
    13    13    14    1
    14    14    15    1
    15    15    10    1
    16    27    22   ar
    17     3     4   ar
    18     7     6   am
    19    16    20    1
    20    16     1    1
    21    22    23   ar
    22    24    25   ar
    23    26    27   ar
    24     1     3   ar
    25     2     4   ar
    26     6     8    2
    27    16    17    2
    28    16    18    2
    29     7     9    1
@<TRIPOS>MOLECULE
MolPort-007-723-529 6818342 CHEMBL1552869 ChemDiv-E157-6111 MCULE-1500953579 PubChem-16017440 ZINC000006818342 ZINC06818342
 27 29 0 0 0
SMALL
GASTEIGER

@<TRIPOS>ATOM
      1 C           9.6657   41.8739    7.7950 C.ar    1  UNL1        0.2593
      2 C          12.0529   41.8806    7.8081 C.ar    1  UNL1        0.1893
      3 N          10.1858   42.1108    9.0194 N.ar    1  UNL1       -0.1187
      4 N          11.5172   42.1137    9.0279 N.ar    1  UNL1       -0.1239
      5 S          10.8676   41.6580    6.6346 S.2     1  UNL1       -0.0102
      6 C          14.2128   42.8908    6.9389 C.2     1  UNL1        0.2271
      7 N          13.4573   41.8341    7.5398 N.am    1  UNL1       -0.2627
      8 O          13.6595   43.9741    6.6032 O.2     1  UNL1       -0.2747
      9 H          13.9407   41.0130    7.7872 H       1  UNL1        0.1568
     10 C          15.6765   42.6980    6.7179 C.3     1  UNL1        0.0769
     11 C          16.3817   42.3102    8.0287 C.3     1  UNL1        0.0091
     12 C          17.0913   43.5046    8.6618 C.3     1  UNL1        0.0005
     13 C          18.1617   44.0761    7.7219 C.3     1  UNL1        0.0000
     14 C          17.7955   43.9741    6.2340 C.3     1  UNL1        0.0005
     15 C          16.2844   43.9278    6.0268 C.3     1  UNL1        0.0091
     16 S           7.9467   41.8386    7.4596 S.O2    1  UNL1        0.1010
     17 O           7.7250   42.1982    6.0165 O.2     1  UNL1       -0.1477
     18 O           7.4050   40.4575    7.7032 O.2     1  UNL1       -0.1477
     19 C           7.8157   44.2073    8.8361 C.3     1  UNL1        0.1392
     20 N           7.1256   42.9707    8.4932 N.pl3   1  UNL1       -0.1870
     21 C           4.1550   40.2746   11.4287 C.3     1  UNL1        0.0311
     22 C           4.3450   41.3837   10.4578 C.ar    1  UNL1       -0.0206
     23 C           3.2527   42.1579   10.0594 C.ar    1  UNL1       -0.0042
     24 C           3.4322   43.2002    9.1468 C.ar    1  UNL1        0.0010
     25 C           4.7043   43.4678    8.6330 C.ar    1  UNL1        0.0161
     26 C           5.8121   42.6961    9.0218 C.ar    1  UNL1        0.0686
     27 C           5.6167   41.6516    9.9424 C.ar    1  UNL1        0.0119
@<TRIPOS>BOND
     1    21    22    1
     2    23    24   ar
     3    25    26   ar
     4    26    20    1
     5    19    20    1
     6     1     5   ar
     7     2     7    1
     8     2     5   ar
     9    10     6    1
    10    10    11    1
    11    11    12    1
    12    12    13    1
    13    13    14    1
    14    14    15    1
    15    15    10    1
    16    27    22   ar
    17     3     4   ar
    18     7     6   am
    19    16    20    1
    20    16     1    1
    21    22    23   ar
    22    24    25   ar
    23    26    27   ar
    24     1     3   ar
    25     2     4   ar
    26     6     8    2
    27    16    17    2
    28    16    18    2
    29     7     9    1
@<TRIPOS>MOLECULE
MolPort-007-723-529 6818342 CHEMBL1552869 ChemDiv-E157-6111 MCULE-1500953579 PubChem-16017440 ZINC000006818342 ZINC06818342
 27 29 0 0 0
SMALL
GASTEIGER

@<TRIPOS>ATOM
      1 C           9.9388   41.6350    8.1799 C.ar    1  UNL1        0.2593
      2 C          12.1834   41.7196    7.3716 C.ar    1  UNL1        0.1893
      3 N          10.0113   41.7995    6.8408 N.ar    1  UNL1       -0.1187
      4 N          11.2629   41.8477    6.3891 N.ar    1  UNL1       -0.1239
      5 S          11.4665   41.5326    8.8824 S.2     1  UNL1       -0.0102
      6 C          14.3778   42.9072    6.9076 C.2     1  UNL1        0.2271
      7 N          13.5978   41.7336    7.1581 N.am    1  UNL1       -0.2627
      8 O          13.8390   44.0475    6.8661 O.2     1  UNL1       -0.2747
      9 H          14.0706   40.8705    7.1854 H       1  UNL1        0.1568
     10 C          15.8495   42.7669    6.7009 C.3     1  UNL1        0.0769
     11 C          16.5464   42.3351    8.0024 C.3     1  UNL1        0.0091
     12 C          17.2119   43.5166    8.7042 C.3     1  UNL1        0.0005
     13 C          18.2789   44.1636    7.8104 C.3     1  UNL1        0.0000
     14 C          17.9375   44.1245    6.3136 C.3     1  UNL1        0.0005
     15 C          16.4315   44.0458    6.0803 C.3     1  UNL1        0.0091
     16 S           8.4313   41.5043    9.0628 S.O2    1  UNL1        0.1010
     17 O           7.5597   40.4814    8.3886 O.2     1  UNL1       -0.1477
     18 O           8.7001   41.0577   10.4729 O.2     1  UNL1       -0.1477
     19 C           8.4628   44.2458    9.1406 C.3     1  UNL1        0.1392
     20 N           7.6331   43.0491    9.0894 N.pl3   1  UNL1       -0.1870
     21 C           3.4977   45.2914    7.4830 C.3     1  UNL1        0.0311
     22 C           4.1598   44.2454    8.3055 C.ar    1  UNL1       -0.0206
     23 C           3.3893   43.3688    9.0729 C.ar    1  UNL1       -0.0042
     24 C           4.0125   42.3859    9.8456 C.ar    1  UNL1        0.0010
     25 C           5.4062   42.2803    9.8504 C.ar    1  UNL1        0.0161
     26 C           6.1949   43.1566    9.0862 C.ar    1  UNL1        0.0686
     27 C           5.5538   44.1396    8.3119 C.ar    1  UNL1        0.0119
@<TRIPOS>BOND
     1    21    22    1
     2    23    24   ar
     3    25    26   ar
     4    26    20    1
     5    19    20    1
     6     1     5   ar
     7     2     7    1
     8     2     5   ar
     9    10     6    1
    10    10    11    1
    11    11    12    1
    12    12    13    1
    13    13    14    1
    14    14    15    1
    15    15    10    1
    16    27    22   ar
    17     3     4   ar
    18     7     6   am
    19    16    20    1
    20    16     1    1
    21    22    23   ar
    22    24    25   ar
    23    26    27   ar
    24     1     3   ar
    25     2     4   ar
    26     6     8    2
    27    16    17    2
    28    16    18    2
    29     7     9    1
@<TRIPOS>MOLECULE
MolPort-007-723-529 6818342 CHEMBL1552869 ChemDiv-E157-6111 MCULE-1500953579 PubChem-16017440 ZINC000006818342 ZINC06818342
 27 29 0 0 0
SMALL
GASTEIGER

@<TRIPOS>ATOM
      1 C           9.7548   42.0519    8.9632 C.ar    1  UNL1        0.2593
      2 C          12.1086   41.8617    8.6145 C.ar    1  UNL1        0.1893
      3 N          10.4355   41.7771   10.0975 N.ar    1  UNL1       -0.1187
      4 N          11.7484   41.6698    9.9039 N.ar    1  UNL1       -0.1239
      5 S          10.7803   42.1844    7.6333 S.2     1  UNL1       -0.0102
      6 C          14.0846   42.8100    7.3348 C.2     1  UNL1        0.2271
      7 N          13.4559   41.8051    8.1368 N.am    1  UNL1       -0.2627
      8 O          13.4604   43.8525    6.9942 O.2     1  UNL1       -0.2747
      9 H          13.9913   41.0149    8.3781 H       1  UNL1        0.1568
     10 C          15.5012   42.6127    6.9074 C.3     1  UNL1        0.0769
     11 C          16.3910   42.2549    8.1100 C.3     1  UNL1        0.0091
     12 C          17.1810   43.4636    8.6061 C.3     1  UNL1        0.0005
     13 C          18.1012   44.0139    7.5078 C.3     1  UNL1        0.0000
     14 C          17.5227   43.8780    6.0916 C.3     1  UNL1        0.0005
     15 C          15.9976   43.8265    6.1077 C.3     1  UNL1        0.0091
     16 S           8.0191   42.2812    8.9029 S.O2    1  UNL1        0.1010
     17 O           7.4640   42.1632   10.2953 O.2     1  UNL1       -0.1477
     18 O           7.7010   43.6502    8.3692 O.2     1  UNL1       -0.1477
     19 C           5.8534   41.0504    7.7549 C.3     1  UNL1        0.1392
     20 N           7.3058   41.0789    7.8685 N.pl3   1  UNL1       -0.1870
     21 C           9.2661   39.4285    3.6090 C.3     1  UNL1        0.0311
     22 C           9.0820   39.2989    5.0781 C.ar    1  UNL1       -0.0206
     23 C           9.6908   38.2482    5.7682 C.ar    1  UNL1       -0.0042
     24 C           9.5171   38.1271    7.1491 C.ar    1  UNL1        0.0010
     25 C           8.7346   39.0573    7.8391 C.ar    1  UNL1        0.0161
     26 C           8.1134   40.1178    7.1584 C.ar    1  UNL1        0.0686
     27 C           8.2985   40.2281    5.7691 C.ar    1  UNL1        0.0119
@<TRIPOS>BOND
     1    21    22    1
     2    23    24   ar
     3    25    26   ar
     4    26    20    1
     5    19    20    1
     6     1     5   ar
     7     2     7    1
     8     2     5   ar
     9    10     6    1
    10    10    11    1
    11    11    12    1
    12    12    13    1
    13    13    14    1
    14    14    15    1
    15    15    10    1
    16    27    22   ar
    17     3     4   ar
    18     7     6   am
    19    16    20    1
    20    16     1    1
    21    22    23   ar
    22    24    25   ar
    23    26    27   ar
    24     1     3   ar
    25     2     4   ar
    26     6     8    2
    27    16    17    2
    28    16    18    2
    29     7     9    1
@<TRIPOS>MOLECULE
MolPort-007-723-529 6818342 CHEMBL1552869 ChemDiv-E157-6111 MCULE-1500953579 PubChem-16017440 ZINC000006818342 ZINC06818342
 27 29 0 0 0
SMALL
GASTEIGER

@<TRIPOS>ATOM
      1 C           9.9090   40.9385    6.4888 C.ar    1  UNL1        0.2593
      2 C          12.1555   41.6750    6.8197 C.ar    1  UNL1        0.1893
      3 N          10.6897   40.7554    5.4013 N.ar    1  UNL1       -0.1187
      4 N          11.9427   41.1667    5.5846 N.ar    1  UNL1       -0.1239
      5 S          10.7635   41.6322    7.7641 S.2     1  UNL1       -0.0102
      6 C          14.0568   43.3553    6.7680 C.2     1  UNL1        0.2271
      7 N          13.4122   42.1832    7.2769 N.am    1  UNL1       -0.2627
      8 O          13.5262   44.0413    5.8514 O.2     1  UNL1       -0.2747
      9 H          13.8682   41.6892    7.9960 H       1  UNL1        0.1568
     10 C          15.3721   43.7648    7.3433 C.3     1  UNL1        0.0769
     11 C          16.1286   44.6903    6.3753 C.3     1  UNL1        0.0091
     12 C          17.2091   43.9367    5.6035 C.3     1  UNL1        0.0005
     13 C          18.2480   43.3276    6.5550 C.3     1  UNL1        0.0000
     14 C          17.6613   42.8678    7.8978 C.3     1  UNL1        0.0005
     15 C          16.1774   42.5318    7.7797 C.3     1  UNL1        0.0091
     16 S           8.2229   40.4693    6.5648 S.O2    1  UNL1        0.1010
     17 O           7.7229   40.2233    5.1682 O.2     1  UNL1       -0.1477
     18 O           8.0787   39.2022    7.3609 O.2     1  UNL1       -0.1477
     19 C           7.1132   42.9774    6.5842 C.3     1  UNL1        0.1392
     20 N           7.2974   41.7332    7.3198 N.pl3   1  UNL1       -0.1870
     21 C           3.4196   40.7259   10.2623 C.3     1  UNL1        0.0311
     22 C           4.8525   41.0842   10.0966 C.ar    1  UNL1       -0.0206
     23 C           5.6606   41.2690   11.2208 C.ar    1  UNL1       -0.0042
     24 C           7.0073   41.6057   11.0641 C.ar    1  UNL1        0.0010
     25 C           7.5451   41.7573    9.7829 C.ar    1  UNL1        0.0161
     26 C           6.7443   41.5776    8.6427 C.ar    1  UNL1        0.0686
     27 C           5.3912   41.2371    8.8156 C.ar    1  UNL1        0.0119
@<TRIPOS>BOND
     1    21    22    1
     2    23    24   ar
     3    25    26   ar
     4    26    20    1
     5    19    20    1
     6     1     5   ar
     7     2     7    1
     8     2     5   ar
     9    10     6    1
    10    10    11    1
    11    11    12    1
    12    12    13    1
    13    13    14    1
    14    14    15    1
    15    15    10    1
    16    27    22   ar
    17     3     4   ar
    18     7     6   am
    19    16    20    1
    20    16     1    1
    21    22    23   ar
    22    24    25   ar
    23    26    27   ar
    24     1     3   ar
    25     2     4   ar
    26     6     8    2
    27    16    17    2
    28    16    18    2
    29     7     9    1
@<TRIPOS>MOLECULE
MolPort-007-723-529 6818342 CHEMBL1552869 ChemDiv-E157-6111 MCULE-1500953579 PubChem-16017440 ZINC000006818342 ZINC06818342
 27 29 0 0 0
SMALL
GASTEIGER

@<TRIPOS>ATOM
      1 C          11.6540   40.8793    9.4508 C.ar    1  UNL1        0.2593
      2 C           9.5269   41.5144   10.3287 C.ar    1  UNL1        0.1893
      3 N          11.4960   40.5387   10.7487 N.ar    1  UNL1       -0.1187
      4 N          10.3103   40.8933   11.2396 N.ar    1  UNL1       -0.1239
      5 S          10.2893   41.6514    8.8349 S.2     1  UNL1       -0.0102
      6 C           7.0458   41.6752    9.8190 C.2     1  UNL1        0.2271
      7 N           8.2056   41.9937   10.5949 N.am    1  UNL1       -0.2627
      8 O           7.1257   40.9142    8.8156 O.2     1  UNL1       -0.2747
      9 H           8.0848   42.5876   11.3707 H       1  UNL1        0.1568
     10 C           5.7282   42.2529   10.2172 C.3     1  UNL1        0.0769
     11 C           4.9708   41.2951   11.1526 C.3     1  UNL1        0.0091
     12 C           3.8941   40.5118   10.4054 C.3     1  UNL1        0.0005
     13 C           2.8552   41.4535    9.7812 C.3     1  UNL1        0.0000
     14 C           3.4406   42.7916    9.3064 C.3     1  UNL1        0.0005
     15 C           4.9257   42.6722    8.9764 C.3     1  UNL1        0.0091
     16 S          13.0937   40.5194    8.5198 S.O2    1  UNL1        0.1010
     17 O          14.3038   40.8055    9.3651 O.2     1  UNL1       -0.1477
     18 O          13.1049   39.0664    8.1342 O.2     1  UNL1       -0.1477
     19 C          12.1052   41.2488    6.0676 C.3     1  UNL1        0.1392
     20 N          13.1206   41.4978    7.0824 N.pl3   1  UNL1       -0.1870
     21 C          17.6880   43.2551    7.9548 C.3     1  UNL1        0.0311
     22 C          16.3626   43.3831    7.2947 C.ar    1  UNL1       -0.0206
     23 C          16.0930   44.4830    6.4769 C.ar    1  UNL1       -0.0042
     24 C          14.8469   44.6025    5.8568 C.ar    1  UNL1        0.0010
     25 C          13.8710   43.6216    6.0549 C.ar    1  UNL1        0.0161
     26 C          14.1261   42.5112    6.8769 C.ar    1  UNL1        0.0686
     27 C          15.3853   42.4033    7.4930 C.ar    1  UNL1        0.0119
@<TRIPOS>BOND
     1    21    22    1
     2    23    24   ar
     3    25    26   ar
     4    26    20    1
     5    19    20    1
     6     1     5   ar
     7     2     7    1
     8     2     5   ar
     9    10     6    1
    10    10    11    1
    11    11    12    1
    12    12    13    1
    13    13    14    1
    14    14    15    1
    15    15    10    1
    16    27    22   ar
    17     3     4   ar
    18     7     6   am
    19    16    20    1
    20    16     1    1
    21    22    23   ar
    22    24    25   ar
    23    26    27   ar
    24     1     3   ar
    25     2     4   ar
    26     6     8    2
    27    16    17    2
    28    16    18    2
    29     7     9    1
@<TRIPOS>MOLECULE
MolPort-007-723-529 6818342 CHEMBL1552869 ChemDiv-E157-6111 MCULE-1500953579 PubChem-16017440 ZINC000006818342 ZINC06818342
 27 29 0 0 0
SMALL
GASTEIGER

@<TRIPOS>ATOM
      1 C           9.8296   40.8086    6.5156 C.ar    1  UNL1        0.2593
      2 C          12.0532   41.6244    6.8133 C.ar    1  UNL1        0.1893
      3 N          10.3834   41.2608    5.3692 N.ar    1  UNL1       -0.1187
      4 N          11.6234   41.7169    5.5343 N.ar    1  UNL1       -0.1239
      5 S          10.8850   40.9523    7.8208 S.2     1  UNL1       -0.0102
      6 C          13.9727   43.2813    6.9210 C.2     1  UNL1        0.2271
      7 N          13.3468   42.0400    7.2611 N.am    1  UNL1       -0.2627
      8 O          13.3902   44.1197    6.1794 O.2     1  UNL1       -0.2747
      9 H          13.8442   41.4254    7.8478 H       1  UNL1        0.1568
     10 C          15.3314   43.5785    7.4632 C.3     1  UNL1        0.0769
     11 C          16.0816   44.5636    6.5505 C.3     1  UNL1        0.0091
     12 C          17.0883   43.8465    5.6541 C.3     1  UNL1        0.0005
     13 C          18.1432   43.1051    6.4867 C.3     1  UNL1        0.0000
     14 C          17.6017   42.5395    7.8079 C.3     1  UNL1        0.0005
     15 C          16.1002   42.2770    7.7360 C.3     1  UNL1        0.0091
     16 S           8.2216   40.1202    6.6127 S.O2    1  UNL1        0.1010
     17 O           7.5310   40.3087    5.2904 O.2     1  UNL1       -0.1477
     18 O           8.3108   38.6486    6.9069 O.2     1  UNL1       -0.1477
     19 C           5.8917   40.6502    7.9592 C.3     1  UNL1        0.1392
     20 N           7.3235   40.9076    7.8766 N.pl3   1  UNL1       -0.1870
     21 C           9.6854   41.6751   12.1827 C.3     1  UNL1        0.0311
     22 C           9.1188   42.1995   10.9127 C.ar    1  UNL1       -0.0206
     23 C           9.2025   43.5628   10.6210 C.ar    1  UNL1       -0.0042
     24 C           8.6697   44.0548    9.4270 C.ar    1  UNL1        0.0010
     25 C           8.0534   43.1827    8.5252 C.ar    1  UNL1        0.0161
     26 C           7.9587   41.8093    8.8058 C.ar    1  UNL1        0.0686
     27 C           8.5011   41.3282   10.0105 C.ar    1  UNL1        0.0119
@<TRIPOS>BOND
     1    21    22    1
     2    23    24   ar
     3    25    26   ar
     4    26    20    1
     5    19    20    1
     6     1     5   ar
     7     2     7    1
     8     2     5   ar
     9    10     6    1
    10    10    11    1
    11    11    12    1
    12    12    13    1
    13    13    14    1
    14    14    15    1
    15    15    10    1
    16    27    22   ar
    17     3     4   ar
    18     7     6   am
    19    16    20    1
    20    16     1    1
    21    22    23   ar
    22    24    25   ar
    23    26    27   ar
    24     1     3   ar
    25     2     4   ar
    26     6     8    2
    27    16    17    2
    28    16    18    2
    29     7     9    1
@<TRIPOS>MOLECULE
MolPort-007-723-529 6818342 CHEMBL1552869 ChemDiv-E157-6111 MCULE-1500953579 PubChem-16017440 ZINC000006818342 ZINC06818342
 27 29 0 0 0
SMALL
GASTEIGER

@<TRIPOS>ATOM
      1 C          13.5558   38.3282   10.3835 C.ar    1  UNL1        0.2593
      2 C          11.4216   39.3783   10.1803 C.ar    1  UNL1        0.1893
      3 N          12.7334   37.6892    9.5227 N.ar    1  UNL1       -0.1187
      4 N          11.5424   38.2737    9.4093 N.ar    1  UNL1       -0.1239
      5 S          12.8243   39.6883   11.0564 S.2     1  UNL1       -0.0102
      6 C           9.8894   41.1905    9.2806 C.2     1  UNL1        0.2271
      7 N          10.2476   40.1933   10.2427 N.am    1  UNL1       -0.2627
      8 O          10.6177   41.4122    8.2743 O.2     1  UNL1       -0.2747
      9 H           9.6400   40.0581   11.0055 H       1  UNL1        0.1568
     10 C           8.6302   41.9675    9.4789 C.3     1  UNL1        0.0769
     11 C           7.5242   41.4681    8.5338 C.3     1  UNL1        0.0091
     12 C           7.3653   42.3808    7.3201 C.3     1  UNL1        0.0005
     13 C           6.9907   43.8076    7.7441 C.3     1  UNL1        0.0000
     14 C           7.6166   44.2401    9.0782 C.3     1  UNL1        0.0005
     15 C           8.9040   43.4751    9.3716 C.3     1  UNL1        0.0091
     16 S          15.1973   37.8172   10.7200 S.O2    1  UNL1        0.1010
     17 O          15.2601   37.2733   12.1204 O.2     1  UNL1       -0.1477
     18 O          15.6036   36.7332    9.7609 O.2     1  UNL1       -0.1477
     19 C          17.4339   39.2339   11.4361 C.3     1  UNL1        0.1392
     20 N          16.2771   39.1700   10.5526 N.pl3   1  UNL1       -0.1870
     21 C          17.8395   43.2101    8.1141 C.3     1  UNL1        0.0311
     22 C          16.7876   42.1961    8.3865 C.ar    1  UNL1       -0.0206
     23 C          15.5668   42.2574    7.7107 C.ar    1  UNL1       -0.0042
     24 C          14.5787   41.3038    7.9674 C.ar    1  UNL1        0.0010
     25 C          14.8122   40.2893    8.9001 C.ar    1  UNL1        0.0161
     26 C          16.0339   40.2162    9.5900 C.ar    1  UNL1        0.0686
     27 C          17.0197   41.1816    9.3200 C.ar    1  UNL1        0.0119
@<TRIPOS>BOND
     1    21    22    1
     2    23    24   ar
     3    25    26   ar
     4    26    20    1
     5    19    20    1
     6     1     5   ar
     7     2     7    1
     8     2     5   ar
     9    10     6    1
    10    10    11    1
    11    11    12    1
    12    12    13    1
    13    13    14    1
    14    14    15    1
    15    15    10    1
    16    27    22   ar
    17     3     4   ar
    18     7     6   am
    19    16    20    1
    20    16     1    1
    21    22    23   ar
    22    24    25   ar
    23    26    27   ar
    24     1     3   ar
    25     2     4   ar
    26     6     8    2
    27    16    17    2
    28    16    18    2
    29     7     9    1
@<TRIPOS>MOLECULE
MolPort-007-723-529 6818342 CHEMBL1552869 ChemDiv-E157-6111 MCULE-1500953579 PubChem-16017440 ZINC000006818342 ZINC06818342
 27 29 0 0 0
SMALL
GASTEIGER

@<TRIPOS>ATOM
      1 C          14.7464   39.7538   10.0574 C.ar    1  UNL1        0.2593
      2 C          12.6332   40.6665    9.4249 C.ar    1  UNL1        0.1893
      3 N          14.7614   40.3171    8.8293 N.ar    1  UNL1       -0.1187
      4 N          13.5830   40.8256    8.4752 N.ar    1  UNL1       -0.1239
      5 S          13.2300   39.8705   10.7819 S.2     1  UNL1       -0.0102
      6 C          10.2395   40.4213    8.6178 C.2     1  UNL1        0.2271
      7 N          11.2835   41.1238    9.2997 N.am    1  UNL1       -0.2627
      8 O          10.4587   39.3059    8.0699 O.2     1  UNL1       -0.2747
      9 H          11.0554   41.9872    9.7141 H       1  UNL1        0.1568
     10 C           8.8751   41.0248    8.5671 C.3     1  UNL1        0.0769
     11 C           7.9783   40.2679    7.5726 C.3     1  UNL1        0.0091
     12 C           7.8645   41.0065    6.2412 C.3     1  UNL1        0.0005
     13 C           7.2550   42.4022    6.4313 C.3     1  UNL1        0.0000
     14 C           7.6370   43.0673    7.7619 C.3     1  UNL1        0.0005
     15 C           8.9625   42.5347    8.2986 C.3     1  UNL1        0.0091
     16 S          16.1517   39.0290   10.8114 S.O2    1  UNL1        0.1010
     17 O          17.3067   39.9863   10.7094 O.2     1  UNL1       -0.1477
     18 O          15.8727   38.7598   12.2639 O.2     1  UNL1       -0.1477
     19 C          17.9091   37.3375    9.5572 C.3     1  UNL1        0.1392
     20 N          16.5388   37.5340   10.0119 N.pl3   1  UNL1       -0.1870
     21 C          11.9606   35.7590   10.7862 C.3     1  UNL1        0.0311
     22 C          13.2972   35.6410   10.1470 C.ar    1  UNL1       -0.0206
     23 C          13.5825   34.5515    9.3209 C.ar    1  UNL1       -0.0042
     24 C          14.8391   34.4414    8.7205 C.ar    1  UNL1        0.0010
     25 C          15.8097   35.4214    8.9466 C.ar    1  UNL1        0.0161
     26 C          15.5388   36.5215    9.7774 C.ar    1  UNL1        0.0686
     27 C          14.2692   36.6200   10.3734 C.ar    1  UNL1        0.0119
@<TRIPOS>BOND
     1    21    22    1
     2    23    24   ar
     3    25    26   ar
     4    26    20    1
     5    19    20    1
     6     1     5   ar
     7     2     7    1
     8     2     5   ar
     9    10     6    1
    10    10    11    1
    11    11    12    1
    12    12    13    1
    13    13    14    1
    14    14    15    1
    15    15    10    1
    16    27    22   ar
    17     3     4   ar
    18     7     6   am
    19    16    20    1
    20    16     1    1
    21    22    23   ar
    22    24    25   ar
    23    26    27   ar
    24     1     3   ar
    25     2     4   ar
    26     6     8    2
    27    16    17    2
    28    16    18    2
    29     7     9    1
@<TRIPOS>MOLECULE
MolPort-007-723-529 6818342 CHEMBL1552869 ChemDiv-E157-6111 MCULE-1500953579 PubChem-16017440 ZINC000006818342 ZINC06818342
 27 29 0 0 0
SMALL
GASTEIGER

@<TRIPOS>ATOM
      1 C          10.3746   42.4040    9.8952 C.ar    1  UNL1        0.2593
      2 C          12.3041   41.0105    9.7113 C.ar    1  UNL1        0.1893
      3 N          11.2903   42.8833    9.0249 N.ar    1  UNL1       -0.1187
      4 N          12.3673   42.1072    8.9223 N.ar    1  UNL1       -0.1239
      5 S          10.8708   40.9523   10.5909 S.2     1  UNL1       -0.0102
      6 C          14.6292   40.1269    9.2070 C.2     1  UNL1        0.2271
      7 N          13.3263   40.0128    9.7882 N.am    1  UNL1       -0.2627
      8 O          14.9674   41.1633    8.5714 O.2     1  UNL1       -0.2747
      9 H          13.1178   39.1847   10.2782 H       1  UNL1        0.1568
     10 C          15.5943   38.9995    9.3681 C.3     1  UNL1        0.0769
     11 C          14.8959   37.7605    9.9537 C.3     1  UNL1        0.0091
     12 C          15.1680   37.6140   11.4489 C.3     1  UNL1        0.0005
     13 C          16.6698   37.4632   11.7274 C.3     1  UNL1        0.0000
     14 C          17.5605   38.2533   10.7574 C.3     1  UNL1        0.0005
     15 C          16.8256   39.4531   10.1667 C.3     1  UNL1        0.0091
     16 S           8.8414   43.1862   10.2216 S.O2    1  UNL1        0.1010
     17 O           9.0831   44.3840   11.0978 O.2     1  UNL1       -0.1477
     18 O           8.2162   43.6464    8.9342 O.2     1  UNL1       -0.1477
     19 C           8.2408   41.4216   12.2336 C.3     1  UNL1        0.1392
     20 N           7.7715   42.0683   11.0151 N.pl3   1  UNL1       -0.1870
     21 C           2.8323   41.9339   11.5591 C.3     1  UNL1        0.0311
     22 C           4.0446   41.6928   10.7339 C.ar    1  UNL1       -0.0206
     23 C           3.9192   41.1716    9.4441 C.ar    1  UNL1       -0.0042
     24 C           5.0593   40.9454    8.6691 C.ar    1  UNL1        0.0010
     25 C           6.3245   41.2407    9.1847 C.ar    1  UNL1        0.0161
     26 C           6.4670   41.7625   10.4813 C.ar    1  UNL1        0.0686
     27 C           5.3106   41.9868   11.2490 C.ar    1  UNL1        0.0119
@<TRIPOS>BOND
     1    21    22    1
     2    23    24   ar
     3    25    26   ar
     4    26    20    1
     5    19    20    1
     6     1     5   ar
     7     2     7    1
     8     2     5   ar
     9    10     6    1
    10    10    11    1
    11    11    12    1
    12    12    13    1
    13    13    14    1
    14    14    15    1
    15    15    10    1
    16    27    22   ar
    17     3     4   ar
    18     7     6   am
    19    16    20    1
    20    16     1    1
    21    22    23   ar
    22    24    25   ar
    23    26    27   ar
    24     1     3   ar
    25     2     4   ar
    26     6     8    2
    27    16    17    2
    28    16    18    2
    29     7     9    1
