@<TRIPOS>MOLECULE
Molport-047-073-963 MCULE-9259942802 PubChem-155997553
 29 32 0 0 0
SMALL
GASTEIGER

@<TRIPOS>ATOM
      1 C           9.6960   41.0621    5.8395 C.ar    1  UNL1        0.1332
      2 C           9.4638   39.8533    5.1689 C.ar    1  UNL1        0.0344
      3 C           8.4242   39.0222    5.5856 C.ar    1  UNL1        0.0041
      4 C           7.6253   39.3993    6.6642 C.ar    1  UNL1        0.0149
      5 C           7.8808   40.6133    7.3160 C.ar    1  UNL1        0.0614
      6 N           8.9016   41.4059    6.8898 N.ar    1  UNL1       -0.2348
      7 C           7.0476   41.0554    8.4767 C.3     1  UNL1        0.0563
      8 C           5.5567   41.0306    8.1187 C.3     1  UNL1        0.0087
      9 C           4.7432   41.8546    9.1149 C.3     1  UNL1        0.0178
     10 C           5.3050   43.2772    9.2893 C.3     1  UNL1        0.0731
     11 C           7.5065   42.4252    8.9999 C.3     1  UNL1        0.0789
     12 N           6.5774   43.4744    8.5857 N.3     1  UNL1       -0.2596
     13 C           7.1319   44.7341    9.0503 C.3     1  UNL1        0.1795
     14 C           8.4613   44.5087    9.6240 C.1     1  UNL1        0.0912
     15 N           9.5112   44.3309   10.0771 N.1     1  UNL1       -0.1944
     16 N          10.7533   41.9492    5.4507 N.pl3   1  UNL1       -0.2782
     17 H          10.5716   42.5499    4.6921 H       1  UNL1        0.1555
     18 C          14.1365   42.7800    6.4213 C.ar    1  UNL1        0.1451
     19 C          14.0810   41.8107    7.4282 C.ar    1  UNL1        0.0619
     20 C          12.0477   42.0481    6.0562 C.ar    1  UNL1        0.1648
     21 S          12.5526   41.1047    7.3418 S.2     1  UNL1       -0.0507
     22 N          13.0095   42.9084    5.6683 N.ar    1  UNL1       -0.2193
     23 C          15.3329   43.6161    6.1971 C.2     1  UNL1        0.2895
     24 C          17.7250   44.1963    6.6883 C.3     1  UNL1        0.1271
     25 C          18.4843   43.9676    7.9610 C.3     1  UNL1        0.0588
     26 C          17.5215   43.1195    8.7748 C.3     1  UNL1        0.1732
     27 N          16.5899   43.3110    6.8234 N.am    1  UNL1       -0.1634
     28 O          15.2487   44.6120    5.4269 O.2     1  UNL1       -0.2661
     29 O          16.6778   42.4537    7.8715 O.3     1  UNL1       -0.2627
@<TRIPOS>BOND
     1    18    23    1
     2    18    22   ar
     3    19    21   ar
     4    20    21   ar
     5    20    16    1
     6     1     6   ar
     7     2     3   ar
     8     4     5   ar
     9     7     5    1
    10     7     8    1
    11     8     9    1
    12     9    10    1
    13    10    12    1
    14    13    12    1
    15    13    14    1
    16    11    12    1
    17    11     7    1
    18    23    27   am
    19    24    27    1
    20    24    25    1
    21    25    26    1
    22    26    29    1
    23    16     1    1
    24    27    29    1
    25    18    19   ar
    26    20    22   ar
    27     1     2   ar
    28     3     4   ar
    29     5     6   ar
    30    23    28    2
    31    14    15    3
    32    16    17    1
@<TRIPOS>MOLECULE
Molport-047-073-963 MCULE-9259942802 PubChem-155997553
 29 32 0 0 0
SMALL
GASTEIGER

@<TRIPOS>ATOM
      1 C          10.0918   41.1743   10.0608 C.ar    1  UNL1        0.1332
      2 C           9.8927   41.1183   11.4472 C.ar    1  UNL1        0.0344
      3 C           8.6515   41.4654   11.9801 C.ar    1  UNL1        0.0041
      4 C           7.6200   41.8649   11.1314 C.ar    1  UNL1        0.0149
      5 C           7.8478   41.9118    9.7494 C.ar    1  UNL1        0.0614
      6 N           9.0682   41.5683    9.2550 N.ar    1  UNL1       -0.2348
      7 C           6.7686   42.3343    8.8041 C.3     1  UNL1        0.0563
      8 C           6.6949   43.8631    8.7087 C.3     1  UNL1        0.0087
      9 C           5.3676   44.3076    8.0971 C.3     1  UNL1        0.0178
     10 C           4.1577   43.6823    8.8147 C.3     1  UNL1        0.0731
     11 C           5.4207   41.7006    9.1813 C.3     1  UNL1        0.0789
     12 N           4.5469   42.6843    9.8175 N.3     1  UNL1       -0.2596
     13 C           3.3388   41.9806   10.2115 C.3     1  UNL1        0.1795
     14 C           3.6895   40.8005   11.0063 C.1     1  UNL1        0.0912
     15 N           3.9664   39.8687   11.6341 N.1     1  UNL1       -0.1944
     16 N          11.3498   40.8298    9.4651 N.pl3   1  UNL1       -0.2782
     17 H          11.9314   40.2226    9.9774 H       1  UNL1        0.1555
     18 C          13.0644   42.4543    6.7267 C.ar    1  UNL1        0.1451
     19 C          12.3317   41.6847    5.8172 C.ar    1  UNL1        0.0619
     20 C          11.8443   41.2812    8.1988 C.ar    1  UNL1        0.1648
     21 S          11.3130   40.6950    6.7252 S.2     1  UNL1       -0.0507
     22 N          12.7928   42.2253    8.0409 N.ar    1  UNL1       -0.2193
     23 C          14.0732   43.4410    6.2914 C.2     1  UNL1        0.2895
     24 C          16.4348   44.2904    6.2537 C.3     1  UNL1        0.1271
     25 C          17.4969   44.1016    7.2953 C.3     1  UNL1        0.0588
     26 C          16.8559   43.1060    8.2473 C.3     1  UNL1        0.1732
     27 N          15.4692   43.2665    6.5848 N.am    1  UNL1       -0.1634
     28 O          13.6984   44.4517    5.6356 O.2     1  UNL1       -0.2661
     29 O          15.8989   42.3813    7.5192 O.3     1  UNL1       -0.2627
@<TRIPOS>BOND
     1    18    23    1
     2    18    22   ar
     3    19    21   ar
     4    20    21   ar
     5    20    16    1
     6     1     6   ar
     7     2     3   ar
     8     4     5   ar
     9     7     5    1
    10     7     8    1
    11     8     9    1
    12     9    10    1
    13    10    12    1
    14    13    12    1
    15    13    14    1
    16    11    12    1
    17    11     7    1
    18    23    27   am
    19    24    27    1
    20    24    25    1
    21    25    26    1
    22    26    29    1
    23    16     1    1
    24    27    29    1
    25    18    19   ar
    26    20    22   ar
    27     1     2   ar
    28     3     4   ar
    29     5     6   ar
    30    23    28    2
    31    14    15    3
    32    16    17    1
@<TRIPOS>MOLECULE
Molport-047-073-963 MCULE-9259942802 PubChem-155997553
 29 32 0 0 0
SMALL
GASTEIGER

@<TRIPOS>ATOM
      1 C          16.8308   41.9468    8.4527 C.ar    1  UNL1        0.1332
      2 C          17.1401   43.1599    7.8221 C.ar    1  UNL1        0.0344
      3 C          16.1782   43.7929    7.0351 C.ar    1  UNL1        0.0041
      4 C          14.9186   43.2151    6.8818 C.ar    1  UNL1        0.0149
      5 C          14.6376   42.0015    7.5237 C.ar    1  UNL1        0.0614
      6 N          15.5938   41.4043    8.2857 N.ar    1  UNL1       -0.2348
      7 C          13.2992   41.3483    7.3858 C.3     1  UNL1        0.0563
      8 C          12.4935   41.9903    6.2499 C.3     1  UNL1        0.0087
      9 C          11.0121   41.6357    6.3646 C.3     1  UNL1        0.0178
     10 C          10.4466   41.9431    7.7629 C.3     1  UNL1        0.0731
     11 C          12.5405   41.3494    8.7218 C.3     1  UNL1        0.0789
     12 N          11.4831   42.3581    8.7149 N.3     1  UNL1       -0.2596
     13 C          10.8801   42.3438   10.0364 C.3     1  UNL1        0.1795
     14 C           9.9390   43.4597   10.1639 C.1     1  UNL1        0.0912
     15 N           9.1959   44.3410   10.2647 N.1     1  UNL1       -0.1944
     16 N          17.7860   41.2567    9.2696 N.pl3   1  UNL1       -0.2782
     17 H          18.6228   41.7340    9.4727 H       1  UNL1        0.1555
     18 C          16.6387   38.1370   10.6942 C.ar    1  UNL1        0.1451
     19 C          17.9527   37.6577   10.6917 C.ar    1  UNL1        0.0619
     20 C          17.6437   39.9416    9.8195 C.ar    1  UNL1        0.1648
     21 S          18.9182   38.8847   10.0561 S.2     1  UNL1       -0.0507
     22 N          16.4737   39.3983   10.2089 N.ar    1  UNL1       -0.2193
     23 C          15.5045   37.3256   11.1800 C.2     1  UNL1        0.2895
     24 C          13.2800   36.2238   10.8092 C.3     1  UNL1        0.1271
     25 C          12.1970   36.6353    9.8570 C.3     1  UNL1        0.0588
     26 C          12.8676   37.7294    9.0435 C.3     1  UNL1        0.1732
     27 N          14.4406   36.9213   10.3025 N.am    1  UNL1       -0.1634
     28 O          15.4797   36.9700   12.3904 O.2     1  UNL1       -0.2661
     29 O          14.2523   37.5027    9.0910 O.3     1  UNL1       -0.2627
@<TRIPOS>BOND
     1    18    23    1
     2    18    22   ar
     3    19    21   ar
     4    20    21   ar
     5    20    16    1
     6     1     6   ar
     7     2     3   ar
     8     4     5   ar
     9     7     5    1
    10     7     8    1
    11     8     9    1
    12     9    10    1
    13    10    12    1
    14    13    12    1
    15    13    14    1
    16    11    12    1
    17    11     7    1
    18    23    27   am
    19    24    27    1
    20    24    25    1
    21    25    26    1
    22    26    29    1
    23    16     1    1
    24    27    29    1
    25    18    19   ar
    26    20    22   ar
    27     1     2   ar
    28     3     4   ar
    29     5     6   ar
    30    23    28    2
    31    14    15    3
    32    16    17    1
@<TRIPOS>MOLECULE
Molport-047-073-963 MCULE-9259942802 PubChem-155997553
 29 32 0 0 0
SMALL
GASTEIGER

@<TRIPOS>ATOM
      1 C          10.4287   41.3041    6.0400 C.ar    1  UNL1        0.1332
      2 C          10.5882   39.9154    6.1437 C.ar    1  UNL1        0.0344
      3 C           9.4959   39.1196    6.4884 C.ar    1  UNL1        0.0041
      4 C           8.2558   39.7105    6.7269 C.ar    1  UNL1        0.0149
      5 C           8.1258   41.1015    6.6162 C.ar    1  UNL1        0.0614
      6 N           9.2073   41.8552    6.2787 N.ar    1  UNL1       -0.2348
      7 C           6.8135   41.7751    6.8632 C.3     1  UNL1        0.0563
      8 C           6.9725   43.3003    6.8501 C.3     1  UNL1        0.0087
      9 C           5.7680   43.9794    7.4992 C.3     1  UNL1        0.0178
     10 C           5.4619   43.4101    8.8964 C.3     1  UNL1        0.0731
     11 C           6.1598   41.2607    8.1549 C.3     1  UNL1        0.0789
     12 N           6.2898   42.2448    9.2275 N.3     1  UNL1       -0.2596
     13 C           5.7221   41.6426   10.4213 C.3     1  UNL1        0.1795
     14 C           6.7589   41.5042   11.4476 C.1     1  UNL1        0.0912
     15 N           7.5777   41.3948   12.2581 N.1     1  UNL1       -0.1944
     16 N          11.5212   42.1647    5.6911 N.pl3   1  UNL1       -0.2782
     17 H          11.3818   42.7712    4.9282 H       1  UNL1        0.1555
     18 C          14.4655   41.6730    7.7326 C.ar    1  UNL1        0.1451
     19 C          15.0626   42.7860    7.1318 C.ar    1  UNL1        0.0619
     20 C          12.7955   42.2297    6.3423 C.ar    1  UNL1        0.1648
     21 S          13.9545   43.3902    6.0143 S.2     1  UNL1       -0.0507
     22 N          13.2142   41.3689    7.2907 N.ar    1  UNL1       -0.2193
     23 C          15.1506   40.8740    8.7686 C.2     1  UNL1        0.2895
     24 C          15.0885   39.2540   10.6847 C.3     1  UNL1        0.1271
     25 C          13.9761   39.0314   11.6655 C.3     1  UNL1        0.0588
     26 C          12.8458   39.8610   11.0800 C.3     1  UNL1        0.1732
     27 N          14.4315   39.9483    9.6000 N.am    1  UNL1       -0.1634
     28 O          16.3975   41.0002    8.9146 O.2     1  UNL1       -0.2661
     29 O          13.0786   39.9784    9.7005 O.3     1  UNL1       -0.2627
@<TRIPOS>BOND
     1    18    23    1
     2    18    22   ar
     3    19    21   ar
     4    20    21   ar
     5    20    16    1
     6     1     6   ar
     7     2     3   ar
     8     4     5   ar
     9     7     5    1
    10     7     8    1
    11     8     9    1
    12     9    10    1
    13    10    12    1
    14    13    12    1
    15    13    14    1
    16    11    12    1
    17    11     7    1
    18    23    27   am
    19    24    27    1
    20    24    25    1
    21    25    26    1
    22    26    29    1
    23    16     1    1
    24    27    29    1
    25    18    19   ar
    26    20    22   ar
    27     1     2   ar
    28     3     4   ar
    29     5     6   ar
    30    23    28    2
    31    14    15    3
    32    16    17    1
@<TRIPOS>MOLECULE
Molport-047-073-963 MCULE-9259942802 PubChem-155997553
 29 32 0 0 0
SMALL
GASTEIGER

@<TRIPOS>ATOM
      1 C          10.6791   41.6131    6.2905 C.ar    1  UNL1        0.1332
      2 C           9.7678   40.8317    5.5668 C.ar    1  UNL1        0.0344
      3 C           8.5367   40.5045    6.1347 C.ar    1  UNL1        0.0041
      4 C           8.2226   40.9559    7.4158 C.ar    1  UNL1        0.0149
      5 C           9.1533   41.7351    8.1163 C.ar    1  UNL1        0.0614
      6 N          10.3475   42.0402    7.5395 N.ar    1  UNL1       -0.2348
      7 C           8.8558   42.2399    9.4923 C.3     1  UNL1        0.0563
      8 C           9.3957   41.2756   10.5555 C.3     1  UNL1        0.0087
      9 C           8.7534   41.5476   11.9144 C.3     1  UNL1        0.0178
     10 C           7.2161   41.5718   11.8373 C.3     1  UNL1        0.0731
     11 C           7.3571   42.5305    9.6652 C.3     1  UNL1        0.0789
     12 N           6.7162   41.4851   10.4605 N.3     1  UNL1       -0.2596
     13 C           5.2981   41.7973   10.5002 C.3     1  UNL1        0.1795
     14 C           4.5654   40.6952   11.1294 C.1     1  UNL1        0.0912
     15 N           3.9867   39.8249   11.6262 N.1     1  UNL1       -0.1944
     16 N          11.9578   41.9740    5.7513 N.pl3   1  UNL1       -0.2782
     17 H          11.9960   42.1557    4.7845 H       1  UNL1        0.1555
     18 C          14.8140   41.5870    7.9355 C.ar    1  UNL1        0.1451
     19 C          15.3553   42.7738    7.4307 C.ar    1  UNL1        0.0619
     20 C          13.1852   42.0964    6.4796 C.ar    1  UNL1        0.1648
     21 S          14.2671   43.3567    6.2827 S.2     1  UNL1       -0.0507
     22 N          13.6164   41.2164    7.4046 N.ar    1  UNL1       -0.2193
     23 C          15.5007   40.7835    8.9669 C.2     1  UNL1        0.2895
     24 C          15.4449   39.1283   10.8528 C.3     1  UNL1        0.1271
     25 C          14.3236   38.8656   11.8133 C.3     1  UNL1        0.0588
     26 C          13.1849   39.6825   11.2265 C.3     1  UNL1        0.1732
     27 N          14.7891   39.8286    9.7713 N.am    1  UNL1       -0.1634
     28 O          16.7425   40.9323    9.1331 O.2     1  UNL1       -0.2661
     29 O          13.4346   39.8295    9.8528 O.3     1  UNL1       -0.2627
@<TRIPOS>BOND
     1    18    23    1
     2    18    22   ar
     3    19    21   ar
     4    20    21   ar
     5    20    16    1
     6     1     6   ar
     7     2     3   ar
     8     4     5   ar
     9     7     5    1
    10     7     8    1
    11     8     9    1
    12     9    10    1
    13    10    12    1
    14    13    12    1
    15    13    14    1
    16    11    12    1
    17    11     7    1
    18    23    27   am
    19    24    27    1
    20    24    25    1
    21    25    26    1
    22    26    29    1
    23    16     1    1
    24    27    29    1
    25    18    19   ar
    26    20    22   ar
    27     1     2   ar
    28     3     4   ar
    29     5     6   ar
    30    23    28    2
    31    14    15    3
    32    16    17    1
@<TRIPOS>MOLECULE
Molport-047-073-963 MCULE-9259942802 PubChem-155997553
 29 32 0 0 0
SMALL
GASTEIGER

@<TRIPOS>ATOM
      1 C          10.4045   41.9111    8.8473 C.ar    1  UNL1        0.1332
      2 C          10.8056   42.8289    9.8279 C.ar    1  UNL1        0.0344
      3 C           9.9125   43.8079   10.2628 C.ar    1  UNL1        0.0041
      4 C           8.6298   43.8662    9.7196 C.ar    1  UNL1        0.0149
      5 C           8.2562   42.9359    8.7403 C.ar    1  UNL1        0.0614
      6 N           9.1467   41.9909    8.3333 N.ar    1  UNL1       -0.2348
      7 C           6.8901   42.9633    8.1322 C.3     1  UNL1        0.0563
      8 C           6.4478   44.4041    7.8494 C.3     1  UNL1        0.0087
      9 C           4.9380   44.4774    7.6294 C.3     1  UNL1        0.0178
     10 C           4.1503   43.8108    8.7717 C.3     1  UNL1        0.0731
     11 C           5.8809   42.1952    8.9995 C.3     1  UNL1        0.0789
     12 N           5.0190   43.1208    9.7320 N.3     1  UNL1       -0.2596
     13 C           4.1608   42.3131   10.5811 C.3     1  UNL1        0.1795
     14 C           3.1214   41.6736    9.7699 C.1     1  UNL1        0.0912
     15 N           2.3006   41.1684    9.1293 N.1     1  UNL1       -0.1944
     16 N          11.2865   40.8883    8.3659 N.pl3   1  UNL1       -0.2782
     17 H          10.9132   40.2515    7.7144 H       1  UNL1        0.1555
     18 C          14.8745   41.0333    8.7936 C.ar    1  UNL1        0.1451
     19 C          14.8051   39.9704    9.7001 C.ar    1  UNL1        0.0619
     20 C          12.6568   40.7008    8.7387 C.ar    1  UNL1        0.1648
     21 S          13.1802   39.5381    9.8212 S.2     1  UNL1       -0.0507
     22 N          13.6845   41.4342    8.2677 N.ar    1  UNL1       -0.2193
     23 C          16.1515   41.6849    8.4391 C.2     1  UNL1        0.2895
     24 C          17.4371   43.5033    7.2813 C.3     1  UNL1        0.1271
     25 C          17.0435   44.2698    6.0540 C.3     1  UNL1        0.0588
     26 C          15.6082   43.8246    5.8300 C.3     1  UNL1        0.1732
     27 N          16.1852   42.9298    7.7218 N.am    1  UNL1       -0.1634
     28 O          17.2348   41.1398    8.7876 O.2     1  UNL1       -0.2661
     29 O          15.0962   43.4096    7.0697 O.3     1  UNL1       -0.2627
@<TRIPOS>BOND
     1    18    23    1
     2    18    22   ar
     3    19    21   ar
     4    20    21   ar
     5    20    16    1
     6     1     6   ar
     7     2     3   ar
     8     4     5   ar
     9     7     5    1
    10     7     8    1
    11     8     9    1
    12     9    10    1
    13    10    12    1
    14    13    12    1
    15    13    14    1
    16    11    12    1
    17    11     7    1
    18    23    27   am
    19    24    27    1
    20    24    25    1
    21    25    26    1
    22    26    29    1
    23    16     1    1
    24    27    29    1
    25    18    19   ar
    26    20    22   ar
    27     1     2   ar
    28     3     4   ar
    29     5     6   ar
    30    23    28    2
    31    14    15    3
    32    16    17    1
@<TRIPOS>MOLECULE
Molport-047-073-963 MCULE-9259942802 PubChem-155997553
 29 32 0 0 0
SMALL
GASTEIGER

@<TRIPOS>ATOM
      1 C          10.8403   40.7354   10.1321 C.ar    1  UNL1        0.1332
      2 C          11.2042   40.6658   11.4839 C.ar    1  UNL1        0.0344
      3 C          10.3070   41.0930   12.4625 C.ar    1  UNL1        0.0041
      4 C           9.0572   41.5856   12.0892 C.ar    1  UNL1        0.0149
      5 C           8.7206   41.6440   10.7301 C.ar    1  UNL1        0.0614
      6 N           9.6143   41.2210    9.7952 N.ar    1  UNL1       -0.2348
      7 C           7.3905   42.1650   10.2871 C.3     1  UNL1        0.0563
      8 C           6.2502   41.3676   10.9317 C.3     1  UNL1        0.0087
      9 C           4.9355   41.5995   10.1894 C.3     1  UNL1        0.0178
     10 C           5.0709   41.3549    8.6756 C.3     1  UNL1        0.0731
     11 C           7.2916   42.2028    8.7543 C.3     1  UNL1        0.0789
     12 N           6.4572   41.1082    8.2630 N.3     1  UNL1       -0.2596
     13 C           6.4894   41.1739    6.8122 C.3     1  UNL1        0.1795
     14 C           7.0758   39.9438    6.2733 C.1     1  UNL1        0.0912
     15 N           7.5389   38.9724    5.8479 N.1     1  UNL1       -0.1944
     16 N          11.7282   40.3108    9.0893 N.pl3   1  UNL1       -0.2782
     17 H          12.1434   39.4243    9.1942 H       1  UNL1        0.1555
     18 C          13.1671   42.4947    6.5916 C.ar    1  UNL1        0.1451
     19 C          12.2370   42.0301    5.6560 C.ar    1  UNL1        0.0619
     20 C          12.0710   41.0482    7.9101 C.ar    1  UNL1        0.1648
     21 S          11.2733   40.8961    6.4478 S.2     1  UNL1       -0.0507
     22 N          13.0723   41.9468    7.8344 N.ar    1  UNL1       -0.2193
     23 C          14.1908   43.5033    6.2517 C.2     1  UNL1        0.2895
     24 C          16.5537   44.3447    6.3423 C.3     1  UNL1        0.1271
     25 C          17.5821   44.0865    7.4027 C.3     1  UNL1        0.0588
     26 C          16.9096   43.0350    8.2690 C.3     1  UNL1        0.1732
     27 N          15.5765   43.3054    6.5772 N.am    1  UNL1       -0.1634
     28 O          13.8386   44.5548    5.6499 O.2     1  UNL1       -0.2661
     29 O          15.9750   42.3613    7.4667 O.3     1  UNL1       -0.2627
@<TRIPOS>BOND
     1    18    23    1
     2    18    22   ar
     3    19    21   ar
     4    20    21   ar
     5    20    16    1
     6     1     6   ar
     7     2     3   ar
     8     4     5   ar
     9     7     5    1
    10     7     8    1
    11     8     9    1
    12     9    10    1
    13    10    12    1
    14    13    12    1
    15    13    14    1
    16    11    12    1
    17    11     7    1
    18    23    27   am
    19    24    27    1
    20    24    25    1
    21    25    26    1
    22    26    29    1
    23    16     1    1
    24    27    29    1
    25    18    19   ar
    26    20    22   ar
    27     1     2   ar
    28     3     4   ar
    29     5     6   ar
    30    23    28    2
    31    14    15    3
    32    16    17    1
@<TRIPOS>MOLECULE
Molport-047-073-963 MCULE-9259942802 PubChem-155997553
 29 32 0 0 0
SMALL
GASTEIGER

@<TRIPOS>ATOM
      1 C           9.4858   39.8699    7.5289 C.ar    1  UNL1        0.1332
      2 C           8.8555   39.3686    6.3817 C.ar    1  UNL1        0.0344
      3 C           7.5036   39.6346    6.1656 C.ar    1  UNL1        0.0041
      4 C           6.7906   40.3957    7.0908 C.ar    1  UNL1        0.0149
      5 C           7.4465   40.8837    8.2290 C.ar    1  UNL1        0.0614
      6 N           8.7662   40.6095    8.4164 N.ar    1  UNL1       -0.2348
      7 C           6.7188   41.7042    9.2458 C.3     1  UNL1        0.0563
      8 C           5.4134   41.0185    9.6671 C.3     1  UNL1        0.0087
      9 C           4.4791   42.0062   10.3634 C.3     1  UNL1        0.0178
     10 C           4.2567   43.2823    9.5316 C.3     1  UNL1        0.0731
     11 C           6.4968   43.1397    8.7452 C.3     1  UNL1        0.0789
     12 N           5.1072   43.3358    8.3371 N.3     1  UNL1       -0.2596
     13 C           5.0119   44.6839    7.8046 C.3     1  UNL1        0.1795
     14 C           3.6033   45.0562    7.6474 C.1     1  UNL1        0.0912
     15 N           2.4910   45.3502    7.5230 N.1     1  UNL1       -0.1944
     16 N          10.8724   39.6218    7.7969 N.pl3   1  UNL1       -0.2782
     17 H          11.0951   38.7610    8.2195 H       1  UNL1        0.1555
     18 C          14.0021   41.4294    7.6697 C.ar    1  UNL1        0.1451
     19 C          13.4965   42.2232    6.6350 C.ar    1  UNL1        0.0619
     20 C          11.9657   40.5021    7.5109 C.ar    1  UNL1        0.1648
     21 S          11.9251   41.6914    6.3355 S.2     1  UNL1       -0.0507
     22 N          13.1529   40.4786    8.1478 N.ar    1  UNL1       -0.2193
     23 C          15.3692   41.6029    8.2005 C.2     1  UNL1        0.2895
     24 C          17.4629   42.9622    8.4616 C.3     1  UNL1        0.1271
     25 C          18.0120   43.9953    7.5234 C.3     1  UNL1        0.0588
     26 C          16.8892   44.1567    6.5126 C.3     1  UNL1        0.1732
     27 N          16.0860   42.8379    8.0385 N.am    1  UNL1       -0.1634
     28 O          15.9111   40.6474    8.8213 O.2     1  UNL1       -0.2661
     29 O          15.6935   43.7814    7.1458 O.3     1  UNL1       -0.2627
@<TRIPOS>BOND
     1    18    23    1
     2    18    22   ar
     3    19    21   ar
     4    20    21   ar
     5    20    16    1
     6     1     6   ar
     7     2     3   ar
     8     4     5   ar
     9     7     5    1
    10     7     8    1
    11     8     9    1
    12     9    10    1
    13    10    12    1
    14    13    12    1
    15    13    14    1
    16    11    12    1
    17    11     7    1
    18    23    27   am
    19    24    27    1
    20    24    25    1
    21    25    26    1
    22    26    29    1
    23    16     1    1
    24    27    29    1
    25    18    19   ar
    26    20    22   ar
    27     1     2   ar
    28     3     4   ar
    29     5     6   ar
    30    23    28    2
    31    14    15    3
    32    16    17    1
@<TRIPOS>MOLECULE
Molport-047-073-963 MCULE-9259942802 PubChem-155997553
 29 32 0 0 0
SMALL
GASTEIGER

@<TRIPOS>ATOM
      1 C          12.7635   39.0562    9.4063 C.ar    1  UNL1        0.1332
      2 C          11.8885   38.0007    9.1145 C.ar    1  UNL1        0.0344
      3 C          10.5838   38.2790    8.7078 C.ar    1  UNL1        0.0041
      4 C          10.1604   39.6026    8.5950 C.ar    1  UNL1        0.0149
      5 C          11.0568   40.6376    8.8937 C.ar    1  UNL1        0.0614
      6 N          12.3243   40.3391    9.2886 N.ar    1  UNL1       -0.2348
      7 C          10.6433   42.0708    8.7853 C.3     1  UNL1        0.0563
      8 C          10.5440   42.7163   10.1728 C.3     1  UNL1        0.0087
      9 C           9.7400   44.0137   10.1140 C.3     1  UNL1        0.0178
     10 C           8.3736   43.8213    9.4317 C.3     1  UNL1        0.0731
     11 C           9.3471   42.2148    7.9729 C.3     1  UNL1        0.0789
     12 N           8.2121   42.4823    8.8538 N.3     1  UNL1       -0.2596
     13 C           7.0278   42.5195    8.0135 C.3     1  UNL1        0.1795
     14 C           5.8366   42.7154    8.8442 C.1     1  UNL1        0.0912
     15 N           4.8960   42.8703    9.5002 N.1     1  UNL1       -0.1944
     16 N          14.1130   38.8217    9.8303 N.pl3   1  UNL1       -0.2782
     17 H          14.2831   37.9891   10.3275 H       1  UNL1        0.1555
     18 C          16.4410   41.3719    8.7555 C.ar    1  UNL1        0.1451
     19 C          17.4267   40.8107    9.5738 C.ar    1  UNL1        0.0619
     20 C          15.2382   39.6783    9.6024 C.ar    1  UNL1        0.1648
     21 S          16.7285   39.4785   10.3350 S.2     1  UNL1       -0.0507
     22 N          15.2333   40.7437    8.7773 N.ar    1  UNL1       -0.2193
     23 C          16.6895   42.5720    7.9316 C.2     1  UNL1        0.2895
     24 C          15.8636   44.4299    6.4600 C.3     1  UNL1        0.1271
     25 C          14.6522   44.4339    5.5761 C.3     1  UNL1        0.0588
     26 C          13.9553   43.1399    5.9612 C.3     1  UNL1        0.1732
     27 N          15.6087   43.3241    7.3558 N.am    1  UNL1       -0.1634
     28 O          17.8785   42.9499    7.7428 O.2     1  UNL1       -0.2661
     29 O          14.3521   42.8195    7.2693 O.3     1  UNL1       -0.2627
@<TRIPOS>BOND
     1    18    23    1
     2    18    22   ar
     3    19    21   ar
     4    20    21   ar
     5    20    16    1
     6     1     6   ar
     7     2     3   ar
     8     4     5   ar
     9     7     5    1
    10     7     8    1
    11     8     9    1
    12     9    10    1
    13    10    12    1
    14    13    12    1
    15    13    14    1
    16    11    12    1
    17    11     7    1
    18    23    27   am
    19    24    27    1
    20    24    25    1
    21    25    26    1
    22    26    29    1
    23    16     1    1
    24    27    29    1
    25    18    19   ar
    26    20    22   ar
    27     1     2   ar
    28     3     4   ar
    29     5     6   ar
    30    23    28    2
    31    14    15    3
    32    16    17    1
@<TRIPOS>MOLECULE
Molport-047-073-963 MCULE-9259942802 PubChem-155997553
 29 32 0 0 0
SMALL
GASTEIGER

@<TRIPOS>ATOM
      1 C          10.8456   41.2416    5.7509 C.ar    1  UNL1        0.1332
      2 C          10.6535   40.0732    5.0007 C.ar    1  UNL1        0.0344
      3 C           9.3871   39.4920    4.9416 C.ar    1  UNL1        0.0041
      4 C           8.3236   40.0765    5.6281 C.ar    1  UNL1        0.0149
      5 C           8.5450   41.2443    6.3704 C.ar    1  UNL1        0.0614
      6 N           9.7904   41.7911    6.4120 N.ar    1  UNL1       -0.2348
      7 C           7.4318   41.9033    7.1209 C.3     1  UNL1        0.0563
      8 C           6.8397   43.0631    6.3110 C.3     1  UNL1        0.0087
      9 C           6.0143   43.9866    7.2050 C.3     1  UNL1        0.0178
     10 C           6.7983   44.4477    8.4469 C.3     1  UNL1        0.0731
     11 C           7.8867   42.3344    8.5237 C.3     1  UNL1        0.0789
     12 N           8.0981   43.7795    8.5772 N.3     1  UNL1       -0.2596
     13 C           8.6026   44.0815    9.9055 C.3     1  UNL1        0.1795
     14 C           9.9848   43.6107   10.0294 C.1     1  UNL1        0.0912
     15 N          11.0763   43.2389   10.1271 N.1     1  UNL1       -0.1944
     16 N          12.1284   41.8752    5.8447 N.pl3   1  UNL1       -0.2782
     17 H          12.3721   42.4927    5.1176 H       1  UNL1        0.1555
     18 C          13.9845   40.9501    8.8073 C.ar    1  UNL1        0.1451
     19 C          15.0551   41.7413    8.3784 C.ar    1  UNL1        0.0619
     20 C          13.0906   41.6991    6.8911 C.ar    1  UNL1        0.1648
     21 S          14.5959   42.4281    6.9089 S.2     1  UNL1       -0.0507
     22 N          12.9031   40.9285    7.9805 N.ar    1  UNL1       -0.2193
     23 C          14.0281   40.1804   10.0669 C.2     1  UNL1        0.2895
     24 C          15.2175   38.6466   11.6583 C.3     1  UNL1        0.1271
     25 C          16.2649   37.6220   11.3388 C.3     1  UNL1        0.0588
     26 C          16.5669   37.9003    9.8760 C.3     1  UNL1        0.1732
     27 N          15.2170   39.4884   10.4828 N.am    1  UNL1       -0.1634
     28 O          13.0004   40.1433   10.7981 O.2     1  UNL1       -0.2661
     29 O          16.2389   39.2421    9.6247 O.3     1  UNL1       -0.2627
@<TRIPOS>BOND
     1    18    23    1
     2    18    22   ar
     3    19    21   ar
     4    20    21   ar
     5    20    16    1
     6     1     6   ar
     7     2     3   ar
     8     4     5   ar
     9     7     5    1
    10     7     8    1
    11     8     9    1
    12     9    10    1
    13    10    12    1
    14    13    12    1
    15    13    14    1
    16    11    12    1
    17    11     7    1
    18    23    27   am
    19    24    27    1
    20    24    25    1
    21    25    26    1
    22    26    29    1
    23    16     1    1
    24    27    29    1
    25    18    19   ar
    26    20    22   ar
    27     1     2   ar
    28     3     4   ar
    29     5     6   ar
    30    23    28    2
    31    14    15    3
    32    16    17    1
