@<TRIPOS>MOLECULE
MolPort-035-706-963 CSSS03437789217 MCULE-9970766562 PubChem-91938288
 31 33 0 0 0
SMALL
GASTEIGER

@<TRIPOS>ATOM
      1 C          13.6593   42.1768    7.2821 C.3     1  UNL1        0.2880
      2 C          13.6523   41.6046    5.8717 C.3     1  UNL1        0.0650
      3 C          11.8164   41.6992    8.9270 C.ar    1  UNL1        0.1542
      4 C          10.4822   41.9006    9.2933 C.ar    1  UNL1        0.0529
      5 C           9.9862   41.3691   10.4890 C.ar    1  UNL1        0.0534
      6 C          10.8423   40.6279   11.3185 C.ar    1  UNL1        0.0161
      7 C          12.1758   40.4219   10.9541 C.ar    1  UNL1        0.0190
      8 C          12.6610   40.9583    9.7591 C.ar    1  UNL1        0.0850
      9 C          14.5258   41.2992    8.1634 C.2     1  UNL1        0.2732
     10 O          12.2947   42.2375    7.7275 O.3     1  UNL1       -0.4618
     11 O          15.7231   41.0694    7.8432 O.2     1  UNL1       -0.2704
     12 N          14.0133   40.7429    9.3739 N.am    1  UNL1       -0.2783
     13 H          14.6028   40.2036    9.9491 H       1  UNL1        0.1551
     14 C           7.4661   41.2947   10.0262 C.2     1  UNL1        0.2305
     15 O           7.5861   40.7643    8.8899 O.2     1  UNL1       -0.2744
     16 N           8.6130   41.6019   10.8295 N.am    1  UNL1       -0.2836
     17 H           8.4398   42.0157   11.7059 H       1  UNL1        0.1549
     18 C           6.1040   41.5783   10.5601 C.3     1  UNL1        0.1116
     19 C           5.4200   42.6064    9.7246 C.ar    1  UNL1       -0.0129
     20 C           4.0255   42.7143    9.7494 C.ar    1  UNL1       -0.0007
     21 C           3.3819   43.6647    8.9513 C.ar    1  UNL1        0.0366
     22 C           4.1254   44.5106    8.1210 C.ar    1  UNL1        0.1387
     23 C           5.5253   44.3953    8.0950 C.ar    1  UNL1        0.0366
     24 C           6.1691   43.4452    8.8928 C.ar    1  UNL1       -0.0007
     25 C           2.0380   45.5879    7.3468 C.3     1  UNL1        0.2525
     26 O           3.4523   45.4506    7.3359 O.3     1  UNL1       -0.4714
     27 C          14.2256   43.5706    7.2676 C.2     1  UNL1        0.3623
     28 O          13.6156   44.4988    6.6660 O.2     1  UNL1       -0.2457
     29 O          15.4620   43.8167    7.8700 O.3     1  UNL1       -0.4458
     30 C          17.8539   43.9481    7.9330 C.3     1  UNL1        0.0513
     31 C          16.6032   44.1959    7.1158 C.3     1  UNL1        0.2087
@<TRIPOS>BOND
     1    30    31    1
     2    31    29    1
     3    27    29    1
     4     1    27    1
     5     1     2    1
     6     1    10    1
     7     1     9    1
     8     3    10    1
     9     4     5   ar
    10     5    16    1
    11    18    14    1
    12    18    19    1
    13    20    21   ar
    14    22    26    1
    15    22    23   ar
    16    25    26    1
    17    24    19   ar
    18     6     7   ar
    19     8    12    1
    20     8     3   ar
    21    16    14   am
    22    12     9   am
    23    27    28    2
    24     3     4   ar
    25     5     6   ar
    26    14    15    2
    27    19    20   ar
    28    21    22   ar
    29    23    24   ar
    30     7     8   ar
    31     9    11    2
    32    16    17    1
    33    12    13    1
@<TRIPOS>MOLECULE
MolPort-035-706-963 CSSS03437789217 MCULE-9970766562 PubChem-91938288
 31 33 0 0 0
SMALL
GASTEIGER

@<TRIPOS>ATOM
      1 C          13.1735   40.1193    7.9034 C.3     1  UNL1        0.2880
      2 C          12.9765   38.9930    6.8985 C.3     1  UNL1        0.0650
      3 C          11.6647   40.4118    9.8953 C.ar    1  UNL1        0.1542
      4 C          10.3978   40.7601   10.3731 C.ar    1  UNL1        0.0529
      5 C          10.1443   40.8015   11.7486 C.ar    1  UNL1        0.0534
      6 C          11.1760   40.4870   12.6470 C.ar    1  UNL1        0.0161
      7 C          12.4430   40.1354   12.1730 C.ar    1  UNL1        0.0190
      8 C          12.6856   40.0988   10.7979 C.ar    1  UNL1        0.0850
      9 C          14.2339   39.7042    8.9039 C.2     1  UNL1        0.2732
     10 O          11.8997   40.3750    8.5167 O.3     1  UNL1       -0.4618
     11 O          15.3758   39.3510    8.5037 O.2     1  UNL1       -0.2704
     12 N          13.9683   39.7296   10.3062 N.am    1  UNL1       -0.2783
     13 H          14.6815   39.4888   10.9407 H       1  UNL1        0.1551
     14 C           8.0102   42.2197   11.6761 C.2     1  UNL1        0.2305
     15 O           8.4032   42.9479   10.7263 O.2     1  UNL1       -0.2744
     16 N           8.8323   41.1672   12.1971 N.am    1  UNL1       -0.2836
     17 H           8.4573   40.6409   12.9397 H       1  UNL1        0.1549
     18 C           6.6509   42.4349   12.2479 C.3     1  UNL1        0.1116
     19 C           5.6038   41.9788   11.2894 C.ar    1  UNL1       -0.0129
     20 C           5.9742   41.3866   10.0774 C.ar    1  UNL1       -0.0007
     21 C           4.9935   40.9768    9.1692 C.ar    1  UNL1        0.0366
     22 C           3.6378   41.1588    9.4631 C.ar    1  UNL1        0.1387
     23 C           3.2702   41.7590   10.6789 C.ar    1  UNL1        0.0366
     24 C           4.2504   42.1689   11.5871 C.ar    1  UNL1       -0.0007
     25 C           1.2943   41.0038    8.6873 C.3     1  UNL1        0.2525
     26 O           2.6819   40.7377    8.5346 O.3     1  UNL1       -0.4714
     27 C          13.6279   41.3660    7.1943 C.2     1  UNL1        0.3623
     28 O          12.9588   41.8273    6.2272 O.2     1  UNL1       -0.2457
     29 O          14.8281   41.9732    7.5721 O.3     1  UNL1       -0.4458
     30 C          16.9404   42.2200    8.6765 C.3     1  UNL1        0.0513
     31 C          15.6322   41.4590    8.6228 C.3     1  UNL1        0.2087
@<TRIPOS>BOND
     1    30    31    1
     2    31    29    1
     3    27    29    1
     4     1    27    1
     5     1     2    1
     6     1    10    1
     7     1     9    1
     8     3    10    1
     9     4     5   ar
    10     5    16    1
    11    18    14    1
    12    18    19    1
    13    20    21   ar
    14    22    26    1
    15    22    23   ar
    16    25    26    1
    17    24    19   ar
    18     6     7   ar
    19     8    12    1
    20     8     3   ar
    21    16    14   am
    22    12     9   am
    23    27    28    2
    24     3     4   ar
    25     5     6   ar
    26    14    15    2
    27    19    20   ar
    28    21    22   ar
    29    23    24   ar
    30     7     8   ar
    31     9    11    2
    32    16    17    1
    33    12    13    1
@<TRIPOS>MOLECULE
MolPort-035-706-963 CSSS03437789217 MCULE-9970766562 PubChem-91938288
 31 33 0 0 0
SMALL
GASTEIGER

@<TRIPOS>ATOM
      1 C          10.2030   39.6609    4.7453 C.3     1  UNL1        0.2880
      2 C          10.0642   40.8464    3.8007 C.3     1  UNL1        0.0650
      3 C          11.1982   39.8937    7.0443 C.ar    1  UNL1        0.1542
      4 C          12.3423   40.1175    7.8161 C.ar    1  UNL1        0.0529
      5 C          12.2790   40.0599    9.2129 C.ar    1  UNL1        0.0534
      6 C          11.0524   39.7768    9.8338 C.ar    1  UNL1        0.0161
      7 C           9.9059   39.5555    9.0656 C.ar    1  UNL1        0.0190
      8 C           9.9806   39.6138    7.6720 C.ar    1  UNL1        0.0850
      9 C           8.8826   39.4434    5.4572 C.2     1  UNL1        0.2732
     10 O          11.2802   39.9561    5.6491 O.3     1  UNL1       -0.4618
     11 O           7.8264   39.2734    4.7905 O.2     1  UNL1       -0.2704
     12 N           8.8164   39.4027    6.8825 N.am    1  UNL1       -0.2783
     13 H           7.9545   39.2263    7.3245 H       1  UNL1        0.1551
     14 C          14.7919   39.8152    9.6561 C.2     1  UNL1        0.2305
     15 O          15.0086   39.1129    8.6331 O.2     1  UNL1       -0.2744
     16 N          13.4762   40.2918    9.9673 N.am    1  UNL1       -0.2836
     17 H          13.3851   40.8346   10.7835 H       1  UNL1        0.1549
     18 C          15.9309   40.1857   10.5429 C.3     1  UNL1        0.1116
     19 C          16.8311   39.0157   10.7519 C.ar    1  UNL1       -0.0129
     20 C          16.5213   38.0588   11.7241 C.ar    1  UNL1       -0.0007
     21 C          17.3751   36.9718   11.9346 C.ar    1  UNL1        0.0366
     22 C          18.5446   36.8352   11.1789 C.ar    1  UNL1        0.1387
     23 C          18.8549   37.8014   10.2074 C.ar    1  UNL1        0.0366
     24 C          18.0016   38.8881    9.9967 C.ar    1  UNL1       -0.0007
     25 C          19.5485   34.6892   10.4685 C.3     1  UNL1        0.2525
     26 O          19.3767   35.7370   11.4129 O.3     1  UNL1       -0.4714
     27 C          10.5514   38.4219    3.9661 C.2     1  UNL1        0.3623
     28 O          11.6162   37.7906    4.2179 O.2     1  UNL1       -0.2457
     29 O           9.7210   38.0112    2.9203 O.3     1  UNL1       -0.4458
     30 C          10.2335   37.7615    0.5927 C.3     1  UNL1        0.0513
     31 C          10.1512   37.0776    1.9414 C.3     1  UNL1        0.2087
@<TRIPOS>BOND
     1    30    31    1
     2    31    29    1
     3    27    29    1
     4     1    27    1
     5     1     2    1
     6     1    10    1
     7     1     9    1
     8     3    10    1
     9     4     5   ar
    10     5    16    1
    11    18    14    1
    12    18    19    1
    13    20    21   ar
    14    22    26    1
    15    22    23   ar
    16    25    26    1
    17    24    19   ar
    18     6     7   ar
    19     8    12    1
    20     8     3   ar
    21    16    14   am
    22    12     9   am
    23    27    28    2
    24     3     4   ar
    25     5     6   ar
    26    14    15    2
    27    19    20   ar
    28    21    22   ar
    29    23    24   ar
    30     7     8   ar
    31     9    11    2
    32    16    17    1
    33    12    13    1
@<TRIPOS>MOLECULE
MolPort-035-706-963 CSSS03437789217 MCULE-9970766562 PubChem-91938288
 31 33 0 0 0
SMALL
GASTEIGER

@<TRIPOS>ATOM
      1 C           6.2803   41.5821   10.1079 C.3     1  UNL1        0.2880
      2 C           5.3440   40.8387    9.1657 C.3     1  UNL1        0.0650
      3 C           8.7169   41.9192    9.5793 C.ar    1  UNL1        0.1542
      4 C           9.9827   41.3427    9.4371 C.ar    1  UNL1        0.0529
      5 C          11.0992   42.1401    9.1619 C.ar    1  UNL1        0.0534
      6 C          10.9358   43.5277    9.0272 C.ar    1  UNL1        0.0161
      7 C           9.6714   44.1072    9.1656 C.ar    1  UNL1        0.0190
      8 C           8.5640   43.3021    9.4419 C.ar    1  UNL1        0.0850
      9 C           6.1342   43.0721    9.8701 C.2     1  UNL1        0.2732
     10 O           7.6118   41.1062    9.8537 O.3     1  UNL1       -0.4618
     11 O           5.0008   43.6170    9.9562 O.2     1  UNL1       -0.2704
     12 N           7.2714   43.8816    9.5717 N.am    1  UNL1       -0.2783
     13 H           7.1597   44.8527    9.4543 H       1  UNL1        0.1551
     14 C          13.0576   40.7242   10.0168 C.2     1  UNL1        0.2305
     15 O          12.5468   40.5159   11.1493 O.2     1  UNL1       -0.2744
     16 N          12.3801   41.5099    9.0274 N.am    1  UNL1       -0.2836
     17 H          12.8422   41.6290    8.1663 H       1  UNL1        0.1549
     18 C          14.3770   40.1150    9.6869 C.3     1  UNL1        0.1116
     19 C          15.1680   41.0267    8.8116 C.ar    1  UNL1       -0.0129
     20 C          14.6014   41.5379    7.6392 C.ar    1  UNL1       -0.0007
     21 C          15.3491   42.3769    6.8075 C.ar    1  UNL1        0.0366
     22 C          16.6675   42.7078    7.1387 C.ar    1  UNL1        0.1387
     23 C          17.2347   42.1879    8.3142 C.ar    1  UNL1        0.0366
     24 C          16.4875   41.3491    9.1458 C.ar    1  UNL1       -0.0007
     25 C          18.7117   43.2582    5.8595 C.3     1  UNL1        0.2525
     26 O          17.3881   43.5494    6.2869 O.3     1  UNL1       -0.4714
     27 C           5.9213   41.2748   11.5363 C.2     1  UNL1        0.3623
     28 O           4.7566   40.8833   11.8293 O.2     1  UNL1       -0.2457
     29 O           6.8663   41.4861   12.5434 O.3     1  UNL1       -0.4458
     30 C           8.8072   41.0758   13.8877 C.3     1  UNL1        0.0513
     31 C           8.0855   40.7608   12.5941 C.3     1  UNL1        0.2087
@<TRIPOS>BOND
     1    30    31    1
     2    31    29    1
     3    27    29    1
     4     1    27    1
     5     1     2    1
     6     1    10    1
     7     1     9    1
     8     3    10    1
     9     4     5   ar
    10     5    16    1
    11    18    14    1
    12    18    19    1
    13    20    21   ar
    14    22    26    1
    15    22    23   ar
    16    25    26    1
    17    24    19   ar
    18     6     7   ar
    19     8    12    1
    20     8     3   ar
    21    16    14   am
    22    12     9   am
    23    27    28    2
    24     3     4   ar
    25     5     6   ar
    26    14    15    2
    27    19    20   ar
    28    21    22   ar
    29    23    24   ar
    30     7     8   ar
    31     9    11    2
    32    16    17    1
    33    12    13    1
@<TRIPOS>MOLECULE
MolPort-035-706-963 CSSS03437789217 MCULE-9970766562 PubChem-91938288
 31 33 0 0 0
SMALL
GASTEIGER

@<TRIPOS>ATOM
      1 C           0.0831   43.5248   15.3997 C.3     1  UNL1        0.2880
      2 C           0.4056   43.0273   16.8016 C.3     1  UNL1        0.0650
      3 C           1.4690   42.8800   13.4013 C.ar    1  UNL1        0.1542
      4 C           2.6843   43.0022   12.7209 C.ar    1  UNL1        0.0529
      5 C           2.8667   42.3874   11.4772 C.ar    1  UNL1        0.0534
      6 C           1.8162   41.6427   10.9184 C.ar    1  UNL1        0.0161
      7 C           0.6009   41.5158   11.5971 C.ar    1  UNL1        0.0190
      8 C           0.4289   42.1351   12.8372 C.ar    1  UNL1        0.0850
      9 C          -0.9941   42.6419   14.8014 C.2     1  UNL1        0.2732
     10 O           1.3049   43.5011   14.6441 O.3     1  UNL1       -0.4618
     11 O          -2.0882   42.4828   15.4068 O.2     1  UNL1       -0.2704
     12 N          -0.7999   42.0008   13.5410 N.am    1  UNL1       -0.2783
     13 H          -1.5252   41.4590   13.1541 H       1  UNL1        0.1551
     14 C           4.6194   41.7565    9.7162 C.2     1  UNL1        0.2305
     15 O           3.9396   40.8154    9.2274 O.2     1  UNL1       -0.2744
     16 N           4.1270   42.5405   10.8108 N.am    1  UNL1       -0.2836
     17 H           4.7153   43.2585   11.1390 H       1  UNL1        0.1549
     18 C           5.9475   42.0830    9.1241 C.3     1  UNL1        0.1116
     19 C           7.0354   41.8280   10.1112 C.ar    1  UNL1       -0.0129
     20 C           6.7182   41.4755   11.4273 C.ar    1  UNL1       -0.0007
     21 C           7.7373   41.2557   12.3588 C.ar    1  UNL1        0.0366
     22 C           9.0786   41.3898   11.9838 C.ar    1  UNL1        0.1387
     23 C           9.3927   41.7494   10.6625 C.ar    1  UNL1        0.0366
     24 C           8.3741   41.9693    9.7310 C.ar    1  UNL1       -0.0007
     25 C           9.8031   41.1123   14.3323 C.3     1  UNL1        0.2525
     26 O          10.0738   41.1626   12.9382 O.3     1  UNL1       -0.4714
     27 C          -0.4201   44.9414   15.4609 C.2     1  UNL1        0.3623
     28 O          -1.4695   45.2161   16.1082 O.2     1  UNL1       -0.2457
     29 O           0.2458   45.9392   14.7448 O.3     1  UNL1       -0.4458
     30 C          -1.2894   47.4100   13.6393 C.3     1  UNL1        0.0513
     31 C          -0.2241   47.2782   14.7074 C.3     1  UNL1        0.2087
@<TRIPOS>BOND
     1    30    31    1
     2    31    29    1
     3    27    29    1
     4     1    27    1
     5     1     2    1
     6     1    10    1
     7     1     9    1
     8     3    10    1
     9     4     5   ar
    10     5    16    1
    11    18    14    1
    12    18    19    1
    13    20    21   ar
    14    22    26    1
    15    22    23   ar
    16    25    26    1
    17    24    19   ar
    18     6     7   ar
    19     8    12    1
    20     8     3   ar
    21    16    14   am
    22    12     9   am
    23    27    28    2
    24     3     4   ar
    25     5     6   ar
    26    14    15    2
    27    19    20   ar
    28    21    22   ar
    29    23    24   ar
    30     7     8   ar
    31     9    11    2
    32    16    17    1
    33    12    13    1
@<TRIPOS>MOLECULE
MolPort-035-706-963 CSSS03437789217 MCULE-9970766562 PubChem-91938288
 31 33 0 0 0
SMALL
GASTEIGER

@<TRIPOS>ATOM
      1 C          12.5016   40.0623    7.4872 C.3     1  UNL1        0.2880
      2 C          12.4519   38.7746    6.6771 C.3     1  UNL1        0.0650
      3 C          11.1424   40.3772    9.5808 C.ar    1  UNL1        0.1542
      4 C           9.8770   40.5519   10.1493 C.ar    1  UNL1        0.0529
      5 C           9.7400   40.7620   11.5260 C.ar    1  UNL1        0.0534
      6 C          10.8877   40.7934   12.3336 C.ar    1  UNL1        0.0161
      7 C          12.1540   40.6160   11.7693 C.ar    1  UNL1        0.0190
      8 C          12.2795   40.4087   10.3937 C.ar    1  UNL1        0.0850
      9 C          13.7065   40.0178    8.4059 C.2     1  UNL1        0.2732
     10 O          11.2602   40.1676    8.2026 O.3     1  UNL1       -0.4618
     11 O          14.8575   39.8271    7.9289 O.2     1  UNL1       -0.2704
     12 N          13.5632   40.2144    9.8125 N.am    1  UNL1       -0.2783
     13 H          14.3625   40.2156   10.3872 H       1  UNL1        0.1551
     14 C           7.5201   42.0167   11.7882 C.2     1  UNL1        0.2305
     15 O           7.8323   42.9443   10.9951 O.2     1  UNL1       -0.2744
     16 N           8.4248   40.9405   12.0684 N.am    1  UNL1       -0.2836
     17 H           8.1104   40.2527   12.6988 H       1  UNL1        0.1549
     18 C           6.1715   42.0203   12.4223 C.3     1  UNL1        0.1116
     19 C           5.1181   41.7254   11.4092 C.ar    1  UNL1       -0.0129
     20 C           5.4366   40.9926   10.2609 C.ar    1  UNL1       -0.0007
     21 C           4.4542   40.7327    9.3007 C.ar    1  UNL1        0.0366
     22 C           3.1494   41.2055    9.4787 C.ar    1  UNL1        0.1387
     23 C           2.8351   41.9458   10.6306 C.ar    1  UNL1        0.0366
     24 C           3.8170   42.2058   11.5907 C.ar    1  UNL1       -0.0007
     25 C           0.8202   41.2750    8.6494 C.3     1  UNL1        0.2525
     26 O           2.1902   40.9282    8.5008 O.3     1  UNL1       -0.4714
     27 C          12.6300   41.2441    6.5649 C.2     1  UNL1        0.3623
     28 O          13.3518   42.2287    6.8895 O.2     1  UNL1       -0.2457
     29 O          11.8954   41.2721    5.3768 O.3     1  UNL1       -0.4458
     30 C           9.6274   40.7914    4.7707 C.3     1  UNL1        0.0513
     31 C          11.0095   40.2232    5.0162 C.3     1  UNL1        0.2087
@<TRIPOS>BOND
     1    30    31    1
     2    31    29    1
     3    27    29    1
     4     1    27    1
     5     1     2    1
     6     1    10    1
     7     1     9    1
     8     3    10    1
     9     4     5   ar
    10     5    16    1
    11    18    14    1
    12    18    19    1
    13    20    21   ar
    14    22    26    1
    15    22    23   ar
    16    25    26    1
    17    24    19   ar
    18     6     7   ar
    19     8    12    1
    20     8     3   ar
    21    16    14   am
    22    12     9   am
    23    27    28    2
    24     3     4   ar
    25     5     6   ar
    26    14    15    2
    27    19    20   ar
    28    21    22   ar
    29    23    24   ar
    30     7     8   ar
    31     9    11    2
    32    16    17    1
    33    12    13    1
@<TRIPOS>MOLECULE
MolPort-035-706-963 CSSS03437789217 MCULE-9970766562 PubChem-91938288
 31 33 0 0 0
SMALL
GASTEIGER

@<TRIPOS>ATOM
      1 C           8.0202   42.1879   11.9967 C.3     1  UNL1        0.2880
      2 C           7.6683   43.6646   11.8856 C.3     1  UNL1        0.0650
      3 C          10.0334   41.2043   10.8523 C.ar    1  UNL1        0.1542
      4 C          10.6426   40.8373    9.6486 C.ar    1  UNL1        0.0529
      5 C          11.8887   40.2005    9.6488 C.ar    1  UNL1        0.0534
      6 C          12.5242   39.9349   10.8718 C.ar    1  UNL1        0.0161
      7 C          11.9195   40.3031   12.0770 C.ar    1  UNL1        0.0190
      8 C          10.6748   40.9367   12.0654 C.ar    1  UNL1        0.0850
      9 C           8.7787   41.9601   13.2892 C.2     1  UNL1        0.2732
     10 O           8.7876   41.8408   10.8328 O.3     1  UNL1       -0.4618
     11 O           8.2723   42.3115   14.3887 O.2     1  UNL1       -0.2704
     12 N          10.0578   41.3266   13.2864 N.am    1  UNL1       -0.2783
     13 H          10.5186   41.1574   14.1398 H       1  UNL1        0.1551
     14 C          12.6737   38.5093    7.8895 C.2     1  UNL1        0.2305
     15 O          12.3222   37.4989    8.5546 O.2     1  UNL1       -0.2744
     16 N          12.4773   39.8373    8.3927 N.am    1  UNL1       -0.2836
     17 H          12.7778   40.5765    7.8161 H       1  UNL1        0.1549
     18 C          13.2753   38.3223    6.5390 C.3     1  UNL1        0.1116
     19 C          12.2656   38.5942    5.4762 C.ar    1  UNL1       -0.0129
     20 C          11.2901   39.5774    5.6722 C.ar    1  UNL1       -0.0007
     21 C          10.3307   39.8194    4.6845 C.ar    1  UNL1        0.0366
     22 C          10.3367   39.0794    3.4971 C.ar    1  UNL1        0.1387
     23 C          11.3147   38.0891    3.3065 C.ar    1  UNL1        0.0366
     24 C          12.2740   37.8469    4.2938 C.ar    1  UNL1       -0.0007
     25 C           7.9876   39.0532    2.7232 C.3     1  UNL1        0.2525
     26 O           9.3645   39.3459    2.5290 O.3     1  UNL1       -0.4714
     27 C           6.7636   41.3606   12.0118 C.2     1  UNL1        0.3623
     28 O           6.6716   40.3576   12.7742 O.2     1  UNL1       -0.2457
     29 O           5.7247   41.6722   11.1311 O.3     1  UNL1       -0.4458
     30 C           3.5100   42.2269   10.4033 C.3     1  UNL1        0.0513
     31 C           4.3895   41.8530   11.5780 C.3     1  UNL1        0.2087
@<TRIPOS>BOND
     1    30    31    1
     2    31    29    1
     3    27    29    1
     4     1    27    1
     5     1     2    1
     6     1    10    1
     7     1     9    1
     8     3    10    1
     9     4     5   ar
    10     5    16    1
    11    18    14    1
    12    18    19    1
    13    20    21   ar
    14    22    26    1
    15    22    23   ar
    16    25    26    1
    17    24    19   ar
    18     6     7   ar
    19     8    12    1
    20     8     3   ar
    21    16    14   am
    22    12     9   am
    23    27    28    2
    24     3     4   ar
    25     5     6   ar
    26    14    15    2
    27    19    20   ar
    28    21    22   ar
    29    23    24   ar
    30     7     8   ar
    31     9    11    2
    32    16    17    1
    33    12    13    1
@<TRIPOS>MOLECULE
MolPort-035-706-963 CSSS03437789217 MCULE-9970766562 PubChem-91938288
 31 33 0 0 0
SMALL
GASTEIGER

@<TRIPOS>ATOM
      1 C           9.5552   39.5432    3.8845 C.3     1  UNL1        0.2880
      2 C           9.3984   40.7818    3.0138 C.3     1  UNL1        0.0650
      3 C          10.1285   39.6926    6.3297 C.ar    1  UNL1        0.1542
      4 C          11.0911   39.9926    7.2983 C.ar    1  UNL1        0.0529
      5 C          10.8158   39.7993    8.6566 C.ar    1  UNL1        0.0534
      6 C           9.5600   39.3023    9.0390 C.ar    1  UNL1        0.0161
      7 C           8.5942   39.0041    8.0737 C.ar    1  UNL1        0.0190
      8 C           8.8800   39.1992    6.7205 C.ar    1  UNL1        0.0850
      9 C           8.1839   39.0902    4.3449 C.2     1  UNL1        0.2732
     10 O          10.4211   39.8928    4.9763 O.3     1  UNL1       -0.4618
     11 O           7.2827   38.8452    3.4982 O.2     1  UNL1       -0.2704
     12 N           7.8987   38.9107    5.7319 N.am    1  UNL1       -0.2783
     13 H           7.0122   38.5831    6.0078 H       1  UNL1        0.1551
     14 C          13.2425   39.9037    9.4760 C.2     1  UNL1        0.2305
     15 O          13.7255   39.3909    8.4317 O.2     1  UNL1       -0.2744
     16 N          11.8318   40.1159    9.6176 N.am    1  UNL1       -0.2836
     17 H          11.5292   40.5210   10.4624 H       1  UNL1        0.1549
     18 C          14.1580   40.3284   10.5725 C.3     1  UNL1        0.1116
     19 C          14.9285   39.1615   11.0899 C.ar    1  UNL1       -0.0129
     20 C          14.6711   38.6656   12.3724 C.ar    1  UNL1       -0.0007
     21 C          15.4067   37.5840   12.8661 C.ar    1  UNL1        0.0366
     22 C          16.4058   36.9933   12.0847 C.ar    1  UNL1        0.1387
     23 C          16.6649   37.4979   10.7995 C.ar    1  UNL1        0.0366
     24 C          15.9296   38.5792   10.3056 C.ar    1  UNL1       -0.0007
     25 C          18.5382   35.8187   12.5218 C.3     1  UNL1        0.2525
     26 O          17.1228   35.9133   12.6068 O.3     1  UNL1       -0.4714
     27 C          10.1981   38.4372    3.0925 C.2     1  UNL1        0.3623
     28 O          11.2259   37.8519    3.5359 O.2     1  UNL1       -0.2457
     29 O           9.6876   38.1057    1.8349 O.3     1  UNL1       -0.4458
     30 C          10.3444   38.5068   -0.4345 C.3     1  UNL1        0.0513
     31 C          10.5196   37.6300    0.7878 C.3     1  UNL1        0.2087
@<TRIPOS>BOND
     1    30    31    1
     2    31    29    1
     3    27    29    1
     4     1    27    1
     5     1     2    1
     6     1    10    1
     7     1     9    1
     8     3    10    1
     9     4     5   ar
    10     5    16    1
    11    18    14    1
    12    18    19    1
    13    20    21   ar
    14    22    26    1
    15    22    23   ar
    16    25    26    1
    17    24    19   ar
    18     6     7   ar
    19     8    12    1
    20     8     3   ar
    21    16    14   am
    22    12     9   am
    23    27    28    2
    24     3     4   ar
    25     5     6   ar
    26    14    15    2
    27    19    20   ar
    28    21    22   ar
    29    23    24   ar
    30     7     8   ar
    31     9    11    2
    32    16    17    1
    33    12    13    1
@<TRIPOS>MOLECULE
MolPort-035-706-963 CSSS03437789217 MCULE-9970766562 PubChem-91938288
 31 33 0 0 0
SMALL
GASTEIGER

@<TRIPOS>ATOM
      1 C           7.2289   41.7042    7.6550 C.3     1  UNL1        0.2880
      2 C           6.6644   41.0710    8.9189 C.3     1  UNL1        0.0650
      3 C           9.6485   41.4669    7.0076 C.ar    1  UNL1        0.1542
      4 C          10.9789   41.8019    7.2770 C.ar    1  UNL1        0.0529
      5 C          12.0053   41.3715    6.4288 C.ar    1  UNL1        0.0534
      6 C          11.6862   40.5961    5.3030 C.ar    1  UNL1        0.0161
      7 C          10.3577   40.2566    5.0322 C.ar    1  UNL1        0.0190
      8 C           9.3408   40.6929    5.8846 C.ar    1  UNL1        0.0850
      9 C           6.9371   40.7946    6.4781 C.2     1  UNL1        0.2732
     10 O           8.6356   41.9055    7.8672 O.3     1  UNL1       -0.4618
     11 O           5.7519   40.4455    6.2286 O.2     1  UNL1       -0.2704
     12 N           7.9873   40.3416    5.6240 N.am    1  UNL1       -0.2783
     13 H           7.7722   39.7791    4.8451 H       1  UNL1        0.1551
     14 C          13.9777   43.0076    6.4901 C.2     1  UNL1        0.2305
     15 O          13.3450   43.9514    5.9465 O.2     1  UNL1       -0.2744
     16 N          13.3558   41.7400    6.7388 N.am    1  UNL1       -0.2836
     17 H          13.9140   41.0512    7.1668 H       1  UNL1        0.1549
     18 C          15.3903   43.2228    6.9132 C.3     1  UNL1        0.1116
     19 C          15.7996   42.1908    7.9084 C.ar    1  UNL1       -0.0129
     20 C          14.8531   41.2962    8.4189 C.ar    1  UNL1       -0.0007
     21 C          15.2317   40.3410    9.3670 C.ar    1  UNL1        0.0366
     22 C          16.5559   40.2751    9.8139 C.ar    1  UNL1        0.1387
     23 C          17.5022   41.1790    9.3028 C.ar    1  UNL1        0.0366
     24 C          17.1240   42.1341    8.3549 C.ar    1  UNL1       -0.0007
     25 C          18.0255   38.4510   10.6082 C.3     1  UNL1        0.2525
     26 O          16.9027   39.3084   10.7618 O.3     1  UNL1       -0.4714
     27 C           6.5798   43.0404    7.4165 C.2     1  UNL1        0.3623
     28 O           6.6105   43.5665    6.2684 O.2     1  UNL1       -0.2457
     29 O           5.9988   43.7236    8.4877 O.3     1  UNL1       -0.4458
     30 C           4.0110   44.8871    7.8263 C.3     1  UNL1        0.0513
     31 C           4.5923   43.7740    8.6727 C.3     1  UNL1        0.2087
@<TRIPOS>BOND
     1    30    31    1
     2    31    29    1
     3    27    29    1
     4     1    27    1
     5     1     2    1
     6     1    10    1
     7     1     9    1
     8     3    10    1
     9     4     5   ar
    10     5    16    1
    11    18    14    1
    12    18    19    1
    13    20    21   ar
    14    22    26    1
    15    22    23   ar
    16    25    26    1
    17    24    19   ar
    18     6     7   ar
    19     8    12    1
    20     8     3   ar
    21    16    14   am
    22    12     9   am
    23    27    28    2
    24     3     4   ar
    25     5     6   ar
    26    14    15    2
    27    19    20   ar
    28    21    22   ar
    29    23    24   ar
    30     7     8   ar
    31     9    11    2
    32    16    17    1
    33    12    13    1
@<TRIPOS>MOLECULE
MolPort-035-706-963 CSSS03437789217 MCULE-9970766562 PubChem-91938288
 31 33 0 0 0
SMALL
GASTEIGER

@<TRIPOS>ATOM
      1 C           4.4159   41.5723    9.8089 C.3     1  UNL1        0.2880
      2 C           3.4068   40.4444    9.6460 C.3     1  UNL1        0.0650
      3 C           6.4796   41.7359    8.3790 C.ar    1  UNL1        0.1542
      4 C           7.7349   41.2113    8.0571 C.ar    1  UNL1        0.0529
      5 C           8.5472   41.8441    7.1095 C.ar    1  UNL1        0.0534
      6 C           8.0877   43.0123    6.4815 C.ar    1  UNL1        0.0161
      7 C           6.8320   43.5379    6.7985 C.ar    1  UNL1        0.0190
      8 C           6.0300   42.8992    7.7471 C.ar    1  UNL1        0.0850
      9 C           3.9228   42.7858    9.0460 C.2     1  UNL1        0.2732
     10 O           5.6808   41.0894    9.3284 O.3     1  UNL1       -0.4618
     11 O           2.7813   43.2625    9.2876 O.2     1  UNL1       -0.2704
     12 N           4.7454   43.4198    8.0666 N.am    1  UNL1       -0.2783
     13 H           4.4196   44.2270    7.6068 H       1  UNL1        0.1551
     14 C          11.0269   41.4051    7.5882 C.2     1  UNL1        0.2305
     15 O          11.0440   42.0696    8.6581 O.2     1  UNL1       -0.2744
     16 N           9.8292   41.2756    6.8110 N.am    1  UNL1       -0.2836
     17 H           9.8937   40.7409    5.9868 H       1  UNL1        0.1549
     18 C          12.2673   40.7125    7.1380 C.3     1  UNL1        0.1116
     19 C          13.4041   41.6745    7.0640 C.ar    1  UNL1       -0.0129
     20 C          14.5692   41.4397    7.8018 C.ar    1  UNL1       -0.0007
     21 C          15.6278   42.3513    7.7486 C.ar    1  UNL1        0.0366
     22 C          15.5289   43.5042    6.9621 C.ar    1  UNL1        0.1387
     23 C          14.3549   43.7390    6.2271 C.ar    1  UNL1        0.0366
     24 C          13.2963   42.8279    6.2800 C.ar    1  UNL1       -0.0007
     25 C          17.9581   43.9679    7.0047 C.3     1  UNL1        0.2525
     26 O          16.6049   44.3954    6.9297 O.3     1  UNL1       -0.4714
     27 C           4.5557   41.9297   11.2637 C.2     1  UNL1        0.3623
     28 O           3.6493   42.5885   11.8467 O.2     1  UNL1       -0.2457
     29 O           5.7234   41.5825   11.9478 O.3     1  UNL1       -0.4458
     30 C           8.0705   41.3940   12.3926 C.3     1  UNL1        0.0513
     31 C           7.0038   42.0212   11.5197 C.3     1  UNL1        0.2087
@<TRIPOS>BOND
     1    30    31    1
     2    31    29    1
     3    27    29    1
     4     1    27    1
     5     1     2    1
     6     1    10    1
     7     1     9    1
     8     3    10    1
     9     4     5   ar
    10     5    16    1
    11    18    14    1
    12    18    19    1
    13    20    21   ar
    14    22    26    1
    15    22    23   ar
    16    25    26    1
    17    24    19   ar
    18     6     7   ar
    19     8    12    1
    20     8     3   ar
    21    16    14   am
    22    12     9   am
    23    27    28    2
    24     3     4   ar
    25     5     6   ar
    26    14    15    2
    27    19    20   ar
    28    21    22   ar
    29    23    24   ar
    30     7     8   ar
    31     9    11    2
    32    16    17    1
    33    12    13    1
