@<TRIPOS>MOLECULE
Molport-053-321-052 PubChem-110111373
 28 30 0 0 0
SMALL
GASTEIGER

@<TRIPOS>ATOM
      1 C          12.0652   41.3739    7.1828 C.ar    1  UNL1        0.1340
      2 C           9.8130   40.6225    7.3348 C.ar    1  UNL1        0.1000
      3 C          10.2289   39.4187    7.9052 C.ar    1  UNL1        0.0165
      4 C          11.5961   39.1955    8.1153 C.ar    1  UNL1       -0.0168
      5 C          12.5172   40.1804    7.7514 C.ar    1  UNL1        0.0303
      6 N          10.7298   41.5653    6.9890 N.ar    1  UNL1       -0.2290
      7 C          12.0921   37.9226    8.7243 C.3     1  UNL1        0.0385
      8 C          11.1591   37.4456    9.8379 C.3     1  UNL1        0.0072
      9 C          11.7276   36.1981   10.5065 C.3     1  UNL1        0.0177
     10 C          13.1587   36.4704   10.9638 C.3     1  UNL1        0.0725
     11 C          13.5137   38.0894    9.2657 C.3     1  UNL1        0.0768
     12 N          13.9915   36.8204    9.8141 N.3     1  UNL1       -0.2647
     13 C          15.3309   37.0581   10.3253 C.3     1  UNL1        0.1587
     14 C          16.3478   36.7035    9.2868 C.2     1  UNL1        0.2421
     15 C          17.2546   35.1238    7.5614 C.3     1  UNL1        0.1149
     16 C          15.1755   34.5289    8.8062 C.3     1  UNL1        0.1149
     17 N          16.2598   35.4668    8.5642 N.am    1  UNL1       -0.2749
     18 O          17.2944   37.5045    9.0582 O.2     1  UNL1       -0.2734
     19 N          13.0216   42.3750    6.8144 N.pl3   1  UNL1       -0.2680
     20 H          12.6958   43.1164    6.2546 H       1  UNL1        0.1565
     21 C          16.5936   40.7125    9.6774 C.3     1  UNL1        0.0522
     22 C          16.1448   41.5966    8.5706 C.ar    1  UNL1        0.0634
     23 C          17.0622   42.4206    7.9214 C.ar    1  UNL1        0.0296
     24 C          16.6027   43.2352    6.8883 C.ar    1  UNL1        0.0634
     25 C          14.4061   42.4015    7.1817 C.ar    1  UNL1        0.2211
     26 C          17.5476   44.1291    6.1698 C.3     1  UNL1        0.0522
     27 N          15.2904   43.2120    6.5382 N.ar    1  UNL1       -0.2179
     28 N          14.8401   41.6013    8.1915 N.ar    1  UNL1       -0.2179
@<TRIPOS>BOND
     1    21    22    1
     2    22    28   ar
     3    23    24   ar
     4    25    27   ar
     5    25    19    1
     6     2     6   ar
     7     3     4   ar
     8     5     1   ar
     9     7     4    1
    10     7     8    1
    11     8     9    1
    12     9    10    1
    13    10    12    1
    14    11    12    1
    15    11     7    1
    16    13    12    1
    17    13    14    1
    18    14    17   am
    19    15    17    1
    20    16    17    1
    21    26    24    1
    22    19     1    1
    23    22    23   ar
    24    24    27   ar
    25    25    28   ar
    26     1     6   ar
    27     2     3   ar
    28     4     5   ar
    29    14    18    2
    30    19    20    1
@<TRIPOS>MOLECULE
Molport-053-321-052 PubChem-110111373
 28 30 0 0 0
SMALL
GASTEIGER

@<TRIPOS>ATOM
      1 C          15.8688   37.6770   10.0709 C.ar    1  UNL1        0.1340
      2 C          14.3206   37.5718   11.8743 C.ar    1  UNL1        0.1000
      3 C          13.7093   38.7518   11.4485 C.ar    1  UNL1        0.0165
      4 C          14.1954   39.4030   10.3071 C.ar    1  UNL1       -0.0168
      5 C          15.2812   38.8602    9.6162 C.ar    1  UNL1        0.0303
      6 N          15.3765   37.0641   11.1841 N.ar    1  UNL1       -0.2290
      7 C          13.5740   40.6694    9.8098 C.3     1  UNL1        0.0385
      8 C          12.0745   40.7001   10.1075 C.3     1  UNL1        0.0072
      9 C          11.4428   41.9552    9.5142 C.3     1  UNL1        0.0177
     10 C          11.7874   42.0481    8.0296 C.3     1  UNL1        0.0725
     11 C          13.8153   40.8481    8.3093 C.3     1  UNL1        0.0768
     12 N          13.2378   42.1137    7.8576 N.3     1  UNL1       -0.2647
     13 C          13.4854   42.2056    6.4285 C.3     1  UNL1        0.1587
     14 C          14.1515   43.5055    6.1048 C.2     1  UNL1        0.2421
     15 C          16.1352   45.0371    6.2232 C.3     1  UNL1        0.1149
     16 C          16.2549   42.7807    7.2815 C.3     1  UNL1        0.1149
     17 N          15.4952   43.7696    6.5340 N.am    1  UNL1       -0.2749
     18 O          13.5121   44.3758    5.4540 O.2     1  UNL1       -0.2734
     19 N          16.9818   37.1321    9.3520 N.pl3   1  UNL1       -0.2680
     20 H          17.8251   37.6390    9.3875 H       1  UNL1        0.1565
     21 C          17.8727   32.3483    9.1495 C.3     1  UNL1        0.0522
     22 C          17.4182   33.5966    8.4838 C.ar    1  UNL1        0.0634
     23 C          17.0121   33.5672    7.1509 C.ar    1  UNL1        0.0296
     24 C          16.5926   34.7585    6.5620 C.ar    1  UNL1        0.0634
     25 C          16.9867   35.9210    8.5866 C.ar    1  UNL1        0.2211
     26 C          16.1515   34.7715    5.1431 C.3     1  UNL1        0.0522
     27 N          16.5871   35.9082    7.2854 N.ar    1  UNL1       -0.2179
     28 N          17.3984   34.7664    9.1745 N.ar    1  UNL1       -0.2179
@<TRIPOS>BOND
     1    21    22    1
     2    22    28   ar
     3    23    24   ar
     4    25    27   ar
     5    25    19    1
     6     2     6   ar
     7     3     4   ar
     8     5     1   ar
     9     7     4    1
    10     7     8    1
    11     8     9    1
    12     9    10    1
    13    10    12    1
    14    11    12    1
    15    11     7    1
    16    13    12    1
    17    13    14    1
    18    14    17   am
    19    15    17    1
    20    16    17    1
    21    26    24    1
    22    19     1    1
    23    22    23   ar
    24    24    27   ar
    25    25    28   ar
    26     1     6   ar
    27     2     3   ar
    28     4     5   ar
    29    14    18    2
    30    19    20    1
@<TRIPOS>MOLECULE
Molport-053-321-052 PubChem-110111373
 28 30 0 0 0
SMALL
GASTEIGER

@<TRIPOS>ATOM
      1 C          13.6195   42.1262    6.5917 C.ar    1  UNL1        0.1340
      2 C          15.5842   43.4621    6.4660 C.ar    1  UNL1        0.1000
      3 C          16.1368   42.7929    7.5588 C.ar    1  UNL1        0.0165
      4 C          15.4072   41.7685    8.1764 C.ar    1  UNL1       -0.0168
      5 C          14.1418   41.4351    7.6879 C.ar    1  UNL1        0.0303
      6 N          14.3501   43.1187    6.0098 N.ar    1  UNL1       -0.2290
      7 C          15.9562   41.0206    9.3496 C.3     1  UNL1        0.0385
      8 C          17.4214   40.6448    9.1256 C.3     1  UNL1        0.0072
      9 C          17.9366   39.8061   10.2908 C.3     1  UNL1        0.0177
     10 C          17.0112   38.6114   10.5092 C.3     1  UNL1        0.0725
     11 C          15.1300   39.7650    9.6368 C.3     1  UNL1        0.0768
     12 N          15.6593   39.0772   10.8142 N.3     1  UNL1       -0.2647
     13 C          14.8437   37.8910   11.0134 C.3     1  UNL1        0.1587
     14 C          13.3943   38.2340   10.8720 C.2     1  UNL1        0.2421
     15 C          11.1106   37.7498    9.9530 C.3     1  UNL1        0.1149
     16 C          13.0016   36.2077    9.4318 C.3     1  UNL1        0.1149
     17 N          12.5164   37.4080   10.0933 N.am    1  UNL1       -0.2749
     18 O          12.9516   39.2684   11.4408 O.2     1  UNL1       -0.2734
     19 N          12.3203   41.7734    6.1017 N.pl3   1  UNL1       -0.2680
     20 H          12.1690   41.8698    5.1337 H       1  UNL1        0.1565
     21 C           8.9056   38.3772    6.8265 C.3     1  UNL1        0.0522
     22 C           9.5593   39.6460    7.2399 C.ar    1  UNL1        0.0634
     23 C           9.0986   40.3342    8.3607 C.ar    1  UNL1        0.0296
     24 C           9.7377   41.5203    8.7163 C.ar    1  UNL1        0.0634
     25 C          11.2200   41.2939    6.8839 C.ar    1  UNL1        0.2211
     26 C           9.2782   42.2854    9.9044 C.3     1  UNL1        0.0522
     27 N          10.7812   41.9772    7.9763 N.ar    1  UNL1       -0.2179
     28 N          10.6061   40.1351    6.5250 N.ar    1  UNL1       -0.2179
@<TRIPOS>BOND
     1    21    22    1
     2    22    28   ar
     3    23    24   ar
     4    25    27   ar
     5    25    19    1
     6     2     6   ar
     7     3     4   ar
     8     5     1   ar
     9     7     4    1
    10     7     8    1
    11     8     9    1
    12     9    10    1
    13    10    12    1
    14    11    12    1
    15    11     7    1
    16    13    12    1
    17    13    14    1
    18    14    17   am
    19    15    17    1
    20    16    17    1
    21    26    24    1
    22    19     1    1
    23    22    23   ar
    24    24    27   ar
    25    25    28   ar
    26     1     6   ar
    27     2     3   ar
    28     4     5   ar
    29    14    18    2
    30    19    20    1
@<TRIPOS>MOLECULE
Molport-053-321-052 PubChem-110111373
 28 30 0 0 0
SMALL
GASTEIGER

@<TRIPOS>ATOM
      1 C          16.5750   41.9765    8.1848 C.ar    1  UNL1        0.1340
      2 C          15.7886   43.6148    6.6492 C.ar    1  UNL1        0.1000
      3 C          14.4776   43.1617    6.8018 C.ar    1  UNL1        0.0165
      4 C          14.2182   42.0909    7.6674 C.ar    1  UNL1       -0.0168
      5 C          15.2747   41.4970    8.3617 C.ar    1  UNL1        0.0303
      6 N          16.7996   43.0192    7.3364 N.ar    1  UNL1       -0.2290
      7 C          12.8304   41.5695    7.8662 C.3     1  UNL1        0.0385
      8 C          12.8466   40.2301    8.6036 C.3     1  UNL1        0.0072
      9 C          11.4319   39.6714    8.7169 C.3     1  UNL1        0.0177
     10 C          10.7923   39.6146    7.3316 C.3     1  UNL1        0.0725
     11 C          12.1008   41.4241    6.5290 C.3     1  UNL1        0.0768
     12 N          10.7333   40.9567    6.7543 N.3     1  UNL1       -0.2647
     13 C          10.1114   40.8225    5.4477 C.3     1  UNL1        0.1587
     14 C           8.8301   40.0591    5.5643 C.2     1  UNL1        0.2421
     15 C           6.4402   39.8956    6.3103 C.3     1  UNL1        0.1149
     16 C           7.7191   41.9983    6.7216 C.3     1  UNL1        0.1149
     17 N           7.6805   40.6444    6.1930 N.am    1  UNL1       -0.2749
     18 O           8.7735   38.8847    5.1090 O.2     1  UNL1       -0.2734
     19 N          17.6486   41.3574    8.9035 N.pl3   1  UNL1       -0.2680
     20 H          18.5209   41.8131    8.8791 H       1  UNL1        0.1565
     21 C          15.1366   38.4872   11.9319 C.3     1  UNL1        0.0522
     22 C          16.3586   38.7417   11.1258 C.ar    1  UNL1        0.0634
     23 C          17.3930   37.8078   11.1148 C.ar    1  UNL1        0.0296
     24 C          18.5227   38.0827   10.3464 C.ar    1  UNL1        0.0634
     25 C          17.5757   40.1394    9.6543 C.ar    1  UNL1        0.2211
     26 C          19.6487   37.1138   10.3066 C.3     1  UNL1        0.0522
     27 N          18.5944   39.2368    9.6336 N.ar    1  UNL1       -0.2179
     28 N          16.4674   39.8847   10.3994 N.ar    1  UNL1       -0.2179
@<TRIPOS>BOND
     1    21    22    1
     2    22    28   ar
     3    23    24   ar
     4    25    27   ar
     5    25    19    1
     6     2     6   ar
     7     3     4   ar
     8     5     1   ar
     9     7     4    1
    10     7     8    1
    11     8     9    1
    12     9    10    1
    13    10    12    1
    14    11    12    1
    15    11     7    1
    16    13    12    1
    17    13    14    1
    18    14    17   am
    19    15    17    1
    20    16    17    1
    21    26    24    1
    22    19     1    1
    23    22    23   ar
    24    24    27   ar
    25    25    28   ar
    26     1     6   ar
    27     2     3   ar
    28     4     5   ar
    29    14    18    2
    30    19    20    1
@<TRIPOS>MOLECULE
Molport-053-321-052 PubChem-110111373
 28 30 0 0 0
SMALL
GASTEIGER

@<TRIPOS>ATOM
      1 C          14.1839   40.2625    9.4925 C.ar    1  UNL1        0.1340
      2 C          13.1435   39.5343   11.5043 C.ar    1  UNL1        0.1000
      3 C          11.8791   39.7003   10.9376 C.ar    1  UNL1        0.0165
      4 C          11.7738   40.1586    9.6177 C.ar    1  UNL1       -0.0168
      5 C          12.9343   40.4403    8.8933 C.ar    1  UNL1        0.0303
      6 N          14.2579   39.8158   10.7779 N.ar    1  UNL1       -0.2290
      7 C          10.4419   40.3516    8.9650 C.3     1  UNL1        0.0385
      8 C          10.5991   40.9004    7.5464 C.3     1  UNL1        0.0072
      9 C           9.2309   41.1754    6.9308 C.3     1  UNL1        0.0177
     10 C           8.4225   42.0749    7.8630 C.3     1  UNL1        0.0725
     11 C           9.5535   41.2828    9.7928 C.3     1  UNL1        0.0768
     12 N           8.2432   41.4188    9.1572 N.3     1  UNL1       -0.2647
     13 C           7.4651   42.3276    9.9822 C.3     1  UNL1        0.1587
     14 C           6.5452   41.5537   10.8727 C.2     1  UNL1        0.2421
     15 C           4.3504   40.4117   11.2895 C.3     1  UNL1        0.1149
     16 C           4.7835   41.4804    9.0768 C.3     1  UNL1        0.1149
     17 N           5.2432   41.1572   10.4177 N.am    1  UNL1       -0.2749
     18 O           6.9254   41.2593   12.0383 O.2     1  UNL1       -0.2734
     19 N          15.3655   40.5556    8.7373 N.pl3   1  UNL1       -0.2680
     20 H          16.0436   39.8443    8.6789 H       1  UNL1        0.1565
     21 C          18.4800   44.2056    7.9023 C.3     1  UNL1        0.0522
     22 C          17.1661   43.5590    7.6501 C.ar    1  UNL1        0.0634
     23 C          16.2565   44.1480    6.7738 C.ar    1  UNL1        0.0296
     24 C          15.0350   43.5111    6.5634 C.ar    1  UNL1        0.0634
     25 C          15.6559   41.7835    8.0587 C.ar    1  UNL1        0.2211
     26 C          14.0365   44.1052    5.6371 C.3     1  UNL1        0.0522
     27 N          14.7571   42.3468    7.2056 N.ar    1  UNL1       -0.2179
     28 N          16.8517   42.3935    8.2737 N.ar    1  UNL1       -0.2179
@<TRIPOS>BOND
     1    21    22    1
     2    22    28   ar
     3    23    24   ar
     4    25    27   ar
     5    25    19    1
     6     2     6   ar
     7     3     4   ar
     8     5     1   ar
     9     7     4    1
    10     7     8    1
    11     8     9    1
    12     9    10    1
    13    10    12    1
    14    11    12    1
    15    11     7    1
    16    13    12    1
    17    13    14    1
    18    14    17   am
    19    15    17    1
    20    16    17    1
    21    26    24    1
    22    19     1    1
    23    22    23   ar
    24    24    27   ar
    25    25    28   ar
    26     1     6   ar
    27     2     3   ar
    28     4     5   ar
    29    14    18    2
    30    19    20    1
@<TRIPOS>MOLECULE
Molport-053-321-052 PubChem-110111373
 28 30 0 0 0
SMALL
GASTEIGER

@<TRIPOS>ATOM
      1 C           8.7181   42.4789   10.1254 C.ar    1  UNL1        0.1340
      2 C           9.3158   41.3874   12.1532 C.ar    1  UNL1        0.1000
      3 C          10.4738   40.8778   11.5644 C.ar    1  UNL1        0.0165
      4 C          10.7525   41.1802   10.2250 C.ar    1  UNL1       -0.0168
      5 C           9.8681   41.9857    9.5039 C.ar    1  UNL1        0.0303
      6 N           8.4708   42.1691   11.4293 N.ar    1  UNL1       -0.2290
      7 C          11.9810   40.6594    9.5490 C.3     1  UNL1        0.0385
      8 C          13.0059   40.1693   10.5725 C.3     1  UNL1        0.0072
      9 C          14.2853   39.7267    9.8698 C.3     1  UNL1        0.0177
     10 C          14.7897   40.8524    8.9698 C.3     1  UNL1        0.0725
     11 C          12.6071   41.7262    8.6482 C.3     1  UNL1        0.0768
     12 N          13.7787   41.1783    7.9651 N.3     1  UNL1       -0.2647
     13 C          14.3303   42.2465    7.1486 C.3     1  UNL1        0.1587
     14 C          15.7553   42.4997    7.5276 C.2     1  UNL1        0.2421
     15 C          17.8014   43.9515    7.5034 C.3     1  UNL1        0.1149
     16 C          15.7171   44.7395    6.3805 C.3     1  UNL1        0.1149
     17 N          16.4145   43.7137    7.1390 N.am    1  UNL1       -0.2749
     18 O          16.3777   41.6249    8.1888 O.2     1  UNL1       -0.2734
     19 N           7.8202   43.3037    9.3732 N.pl3   1  UNL1       -0.2680
     20 H           8.2186   44.0486    8.8677 H       1  UNL1        0.1565
     21 C           3.5376   45.0509    7.8479 C.3     1  UNL1        0.0522
     22 C           4.3155   43.9948    8.5461 C.ar    1  UNL1        0.0634
     23 C           3.6600   42.8932    9.0928 C.ar    1  UNL1        0.0296
     24 C           4.4243   41.9240    9.7397 C.ar    1  UNL1        0.0634
     25 C           6.3985   43.1495    9.2853 C.ar    1  UNL1        0.2211
     26 C           3.7651   40.7335   10.3367 C.3     1  UNL1        0.0522
     27 N           5.7723   42.0678    9.8245 N.ar    1  UNL1       -0.2179
     28 N           5.6658   44.1031    8.6512 N.ar    1  UNL1       -0.2179
@<TRIPOS>BOND
     1    21    22    1
     2    22    28   ar
     3    23    24   ar
     4    25    27   ar
     5    25    19    1
     6     2     6   ar
     7     3     4   ar
     8     5     1   ar
     9     7     4    1
    10     7     8    1
    11     8     9    1
    12     9    10    1
    13    10    12    1
    14    11    12    1
    15    11     7    1
    16    13    12    1
    17    13    14    1
    18    14    17   am
    19    15    17    1
    20    16    17    1
    21    26    24    1
    22    19     1    1
    23    22    23   ar
    24    24    27   ar
    25    25    28   ar
    26     1     6   ar
    27     2     3   ar
    28     4     5   ar
    29    14    18    2
    30    19    20    1
@<TRIPOS>MOLECULE
Molport-053-321-052 PubChem-110111373
 28 30 0 0 0
SMALL
GASTEIGER

@<TRIPOS>ATOM
      1 C          13.9275   39.7926    9.4030 C.ar    1  UNL1        0.1340
      2 C          12.5006   37.9524    9.8905 C.ar    1  UNL1        0.1000
      3 C          11.4184   38.8125   10.0813 C.ar    1  UNL1        0.0165
      4 C          11.6038   40.1928    9.9279 C.ar    1  UNL1       -0.0168
      5 C          12.8665   40.6829    9.5865 C.ar    1  UNL1        0.0303
      6 N          13.7199   38.4548    9.5588 N.ar    1  UNL1       -0.2290
      7 C          10.4755   41.1557   10.1203 C.3     1  UNL1        0.0385
      8 C           9.8456   40.9952   11.5043 C.3     1  UNL1        0.0072
      9 C           8.6418   41.9207   11.6484 C.3     1  UNL1        0.0177
     10 C           7.6747   41.6854   10.4903 C.3     1  UNL1        0.0725
     11 C           9.4110   40.9793    9.0352 C.3     1  UNL1        0.0768
     12 N           8.3426   41.9611    9.2193 N.3     1  UNL1       -0.2647
     13 C           7.3634   41.7221    8.1724 C.3     1  UNL1        0.1587
     14 C           5.9809   41.9351    8.7032 C.2     1  UNL1        0.2421
     15 C           4.0411   43.4419    9.2144 C.3     1  UNL1        0.1149
     16 C           6.0900   44.3879    8.1500 C.3     1  UNL1        0.1149
     17 N           5.3818   43.2390    8.6906 N.am    1  UNL1       -0.2749
     18 O           5.3472   40.9515    9.1731 O.2     1  UNL1       -0.2734
     19 N          15.2169   40.3099    9.0532 N.pl3   1  UNL1       -0.2680
     20 H          15.9998   39.8050    9.3718 H       1  UNL1        0.1565
     21 C          18.2361   43.9700    7.9542 C.3     1  UNL1        0.0522
     22 C          16.9414   43.2707    7.7477 C.ar    1  UNL1        0.0634
     23 C          16.0206   43.7670    6.8269 C.ar    1  UNL1        0.0296
     24 C          14.8177   43.0831    6.6617 C.ar    1  UNL1        0.0634
     25 C          15.4775   41.4906    8.2848 C.ar    1  UNL1        0.2211
     26 C          13.8081   43.5783    5.6903 C.3     1  UNL1        0.0522
     27 N          14.5681   41.9634    7.3890 N.ar    1  UNL1       -0.2179
     28 N          16.6554   42.1474    8.4566 N.ar    1  UNL1       -0.2179
@<TRIPOS>BOND
     1    21    22    1
     2    22    28   ar
     3    23    24   ar
     4    25    27   ar
     5    25    19    1
     6     2     6   ar
     7     3     4   ar
     8     5     1   ar
     9     7     4    1
    10     7     8    1
    11     8     9    1
    12     9    10    1
    13    10    12    1
    14    11    12    1
    15    11     7    1
    16    13    12    1
    17    13    14    1
    18    14    17   am
    19    15    17    1
    20    16    17    1
    21    26    24    1
    22    19     1    1
    23    22    23   ar
    24    24    27   ar
    25    25    28   ar
    26     1     6   ar
    27     2     3   ar
    28     4     5   ar
    29    14    18    2
    30    19    20    1
@<TRIPOS>MOLECULE
Molport-053-321-052 PubChem-110111373
 28 30 0 0 0
SMALL
GASTEIGER

@<TRIPOS>ATOM
      1 C          14.0882   39.3473    9.1144 C.ar    1  UNL1        0.1340
      2 C          12.8062   37.5498   10.0008 C.ar    1  UNL1        0.1000
      3 C          11.7194   37.8987    9.1980 C.ar    1  UNL1        0.0165
      4 C          11.8279   38.9986    8.3369 C.ar    1  UNL1       -0.0168
      5 C          13.0202   39.7251    8.2967 C.ar    1  UNL1        0.0303
      6 N          13.9560   38.2735    9.9431 N.ar    1  UNL1       -0.2290
      7 C          10.6921   39.4120    7.4558 C.3     1  UNL1        0.0385
      8 C          11.1673   40.3608    6.3548 C.3     1  UNL1        0.0072
      9 C           9.9826   40.8420    5.5232 C.3     1  UNL1        0.0177
     10 C           8.9192   41.4357    6.4442 C.3     1  UNL1        0.0725
     11 C           9.5756   40.0695    8.2699 C.3     1  UNL1        0.0768
     12 N           8.4595   40.4228    7.3930 N.3     1  UNL1       -0.2647
     13 C           7.4516   41.0572    8.2258 C.3     1  UNL1        0.1587
     14 C           7.9844   42.3341    8.7949 C.2     1  UNL1        0.2421
     15 C           7.9174   44.8335    9.0026 C.3     1  UNL1        0.1149
     16 C           6.2482   43.6713    7.5573 C.3     1  UNL1        0.1149
     17 N           7.3912   43.5952    8.4527 N.am    1  UNL1       -0.2749
     18 O           8.9727   42.2907    9.5767 O.2     1  UNL1       -0.2734
     19 N          15.3049   40.1019    9.0625 N.pl3   1  UNL1       -0.2680
     20 H          16.0764   39.7357    9.5522 H       1  UNL1        0.1565
     21 C          18.1580   43.9459    8.1661 C.3     1  UNL1        0.0522
     22 C          16.8907   43.2073    7.9284 C.ar    1  UNL1        0.0634
     23 C          15.9395   43.7209    7.0488 C.ar    1  UNL1        0.0296
     24 C          14.7639   42.9989    6.8523 C.ar    1  UNL1        0.0634
     25 C          15.5076   41.3379    8.3668 C.ar    1  UNL1        0.2211
     26 C          13.7234   43.5108    5.9230 C.3     1  UNL1        0.0522
     27 N          14.5691   41.8268    7.5107 N.ar    1  UNL1       -0.2179
     28 N          16.6595   42.0313    8.5684 N.ar    1  UNL1       -0.2179
@<TRIPOS>BOND
     1    21    22    1
     2    22    28   ar
     3    23    24   ar
     4    25    27   ar
     5    25    19    1
     6     2     6   ar
     7     3     4   ar
     8     5     1   ar
     9     7     4    1
    10     7     8    1
    11     8     9    1
    12     9    10    1
    13    10    12    1
    14    11    12    1
    15    11     7    1
    16    13    12    1
    17    13    14    1
    18    14    17   am
    19    15    17    1
    20    16    17    1
    21    26    24    1
    22    19     1    1
    23    22    23   ar
    24    24    27   ar
    25    25    28   ar
    26     1     6   ar
    27     2     3   ar
    28     4     5   ar
    29    14    18    2
    30    19    20    1
@<TRIPOS>MOLECULE
Molport-053-321-052 PubChem-110111373
 28 30 0 0 0
SMALL
GASTEIGER

@<TRIPOS>ATOM
      1 C          14.3117   40.3059    9.6479 C.ar    1  UNL1        0.1340
      2 C          13.3918   39.2133   11.5506 C.ar    1  UNL1        0.1000
      3 C          12.1750   39.8721   11.3692 C.ar    1  UNL1        0.0165
      4 C          12.0320   40.7667   10.3004 C.ar    1  UNL1       -0.0168
      5 C          13.1079   40.9828    9.4363 C.ar    1  UNL1        0.0303
      6 N          14.4241   39.4413   10.6954 N.ar    1  UNL1       -0.2290
      7 C          10.7480   41.4963   10.0628 C.3     1  UNL1        0.0385
      8 C          10.0029   41.7400   11.3756 C.3     1  UNL1        0.0072
      9 C           8.6564   42.4032   11.1045 C.3     1  UNL1        0.0177
     10 C           7.8749   41.5758   10.0865 C.3     1  UNL1        0.0725
     11 C           9.8534   40.7307    9.0854 C.3     1  UNL1        0.0768
     12 N           8.6260   41.4859    8.8353 N.3     1  UNL1       -0.2647
     13 C           7.8209   40.6938    7.9207 C.3     1  UNL1        0.1587
     14 C           8.4100   40.7389    6.5463 C.2     1  UNL1        0.2421
     15 C           9.5209   39.6052    4.6033 C.3     1  UNL1        0.1149
     16 C           8.9140   38.2743    6.6248 C.3     1  UNL1        0.1149
     17 N           8.9429   39.5544    5.9360 N.am    1  UNL1       -0.2749
     18 O           8.4416   41.8381    5.9293 O.2     1  UNL1       -0.2734
     19 N          15.4066   40.5376    8.7535 N.pl3   1  UNL1       -0.2680
     20 H          16.0260   39.7869    8.6052 H       1  UNL1        0.1565
     21 C          18.4980   44.1897    7.8453 C.3     1  UNL1        0.0522
     22 C          17.1863   43.5323    7.6097 C.ar    1  UNL1        0.0634
     23 C          16.2696   44.1025    6.7283 C.ar    1  UNL1        0.0296
     24 C          15.0505   43.4560    6.5339 C.ar    1  UNL1        0.0634
     25 C          15.6874   41.7559    8.0539 C.ar    1  UNL1        0.2211
     26 C          14.0446   44.0299    5.6028 C.3     1  UNL1        0.0522
     27 N          14.7817   42.3008    7.1961 N.ar    1  UNL1       -0.2179
     28 N          16.8810   42.3755    8.2534 N.ar    1  UNL1       -0.2179
@<TRIPOS>BOND
     1    21    22    1
     2    22    28   ar
     3    23    24   ar
     4    25    27   ar
     5    25    19    1
     6     2     6   ar
     7     3     4   ar
     8     5     1   ar
     9     7     4    1
    10     7     8    1
    11     8     9    1
    12     9    10    1
    13    10    12    1
    14    11    12    1
    15    11     7    1
    16    13    12    1
    17    13    14    1
    18    14    17   am
    19    15    17    1
    20    16    17    1
    21    26    24    1
    22    19     1    1
    23    22    23   ar
    24    24    27   ar
    25    25    28   ar
    26     1     6   ar
    27     2     3   ar
    28     4     5   ar
    29    14    18    2
    30    19    20    1
@<TRIPOS>MOLECULE
Molport-053-321-052 PubChem-110111373
 28 30 0 0 0
SMALL
GASTEIGER

@<TRIPOS>ATOM
      1 C          13.8237   39.8249    9.5529 C.ar    1  UNL1        0.1340
      2 C          12.3648   37.9884    9.9516 C.ar    1  UNL1        0.1000
      3 C          11.2824   38.8540   10.1145 C.ar    1  UNL1        0.0165
      4 C          11.4841   40.2351    9.9925 C.ar    1  UNL1       -0.0168
      5 C          12.7630   40.7206    9.7098 C.ar    1  UNL1        0.0303
      6 N          13.6000   38.4863    9.6770 N.ar    1  UNL1       -0.2290
      7 C          10.3564   41.2038   10.1570 C.3     1  UNL1        0.0385
      8 C           9.7008   41.0564   11.5305 C.3     1  UNL1        0.0072
      9 C           8.4982   41.9876   11.6455 C.3     1  UNL1        0.0177
     10 C           7.5515   41.7472   10.4719 C.3     1  UNL1        0.0725
     11 C           9.3111   41.0232    9.0540 C.3     1  UNL1        0.0768
     12 N           8.2434   42.0106    9.2111 N.3     1  UNL1       -0.2647
     13 C           7.2825   41.7673    8.1484 C.3     1  UNL1        0.1587
     14 C           5.8905   41.9699    8.6577 C.2     1  UNL1        0.2421
     15 C           3.9407   43.4662    9.1617 C.3     1  UNL1        0.1149
     16 C           6.0082   44.4327    8.1530 C.3     1  UNL1        0.1149
     17 N           5.2909   43.2736    8.6588 N.am    1  UNL1       -0.2749
     18 O           5.2489   40.9775    9.0973 O.2     1  UNL1       -0.2734
     19 N          15.1298   40.3374    9.2632 N.pl3   1  UNL1       -0.2680
     20 H          15.8923   39.8684    9.6730 H       1  UNL1        0.1565
     21 C          13.7914   43.3274    5.6593 C.3     1  UNL1        0.0522
     22 C          14.7876   42.9214    6.6845 C.ar    1  UNL1        0.0634
     23 C          15.9780   43.6333    6.8195 C.ar    1  UNL1        0.0296
     24 C          16.8868   43.2218    7.7924 C.ar    1  UNL1        0.0634
     25 C          15.4339   41.4663    8.4351 C.ar    1  UNL1        0.2211
     26 C          18.1683   43.9529    7.9698 C.3     1  UNL1        0.0522
     27 N          16.6011   42.1517    8.5789 N.ar    1  UNL1       -0.2179
     28 N          14.5376   41.8563    7.4901 N.ar    1  UNL1       -0.2179
@<TRIPOS>BOND
     1    21    22    1
     2    22    28   ar
     3    23    24   ar
     4    25    27   ar
     5    25    19    1
     6     2     6   ar
     7     3     4   ar
     8     5     1   ar
     9     7     4    1
    10     7     8    1
    11     8     9    1
    12     9    10    1
    13    10    12    1
    14    11    12    1
    15    11     7    1
    16    13    12    1
    17    13    14    1
    18    14    17   am
    19    15    17    1
    20    16    17    1
    21    26    24    1
    22    19     1    1
    23    22    23   ar
    24    24    27   ar
    25    25    28   ar
    26     1     6   ar
    27     2     3   ar
    28     4     5   ar
    29    14    18    2
    30    19    20    1
