@<TRIPOS>MOLECULE
MolPort-035-369-422 215047053 CSSS00160379462 MCULE-4057324543 PubChem-77079754 ZINC000215047053
 23 24 0 0 0
SMALL
GASTEIGER

@<TRIPOS>ATOM
      1 C          10.6464   40.7069    6.9348 C.3     1  UNL1        0.0994
      2 C          12.0592   41.1406    7.1350 C.ar    1  UNL1       -0.0061
      3 C          12.8069   40.6059    8.1877 C.ar    1  UNL1       -0.0016
      4 C          14.1287   41.0148    8.3872 C.ar    1  UNL1        0.0144
      5 C          14.7130   41.9623    7.5395 C.ar    1  UNL1        0.0503
      6 C          13.9563   42.5007    6.4872 C.ar    1  UNL1        0.0144
      7 C          12.6346   42.0930    6.2865 C.ar    1  UNL1       -0.0016
      8 C          16.6340   43.6588    7.5791 C.2     1  UNL1        0.2266
      9 C          18.0713   43.8836    7.8803 C.3     1  UNL1        0.0949
     10 N          16.0717   42.3554    7.7765 N.am    1  UNL1       -0.2839
     11 O          15.9348   44.6167    7.1557 O.2     1  UNL1       -0.2748
     12 H          16.6813   41.6576    8.1093 H       1  UNL1        0.1549
     13 C           9.8417   38.7104    7.9030 C.3     1  UNL1        0.0902
     14 N          10.1209   40.1155    8.1601 N.3     1  UNL1       -0.2639
     15 C           8.8965   40.8108    8.5858 C.3     1  UNL1        0.1018
     16 C           9.1333   41.9655    9.5276 C.ar    1  UNL1        0.0221
     17 C           9.9808   42.0108   10.6143 C.ar    1  UNL1        0.0504
     18 C          10.8084   40.8905   11.1406 C.3     1  UNL1        0.0512
     19 C           8.6727   43.2596    9.4106 C.ar    1  UNL1        0.0771
     20 C           7.7719   43.7875    8.3499 C.3     1  UNL1        0.0537
     21 N           9.9978   43.2566   11.1246 N.ar    1  UNL1       -0.2803
     22 N           9.1994   44.0188   10.3902 N.ar    1  UNL1       -0.1776
     23 H          10.5148   43.5513   11.9089 H       1  UNL1        0.1885
@<TRIPOS>BOND
     1    13    14    1
     2    15    14    1
     3    15    16    1
     4    17    21   ar
     5    18    17    1
     6    19    16   ar
     7    20    19    1
     8     1    14    1
     9     1     2    1
    10     3     4   ar
    11     5    10    1
    12     5     6   ar
    13     9     8    1
    14     7     2   ar
    15    21    22   ar
    16    10     8   am
    17    16    17   ar
    18    19    22   ar
    19     2     3   ar
    20     4     5   ar
    21     8    11    2
    22     6     7   ar
    23    21    23    1
    24    10    12    1
@<TRIPOS>MOLECULE
MolPort-035-369-422 215047053 CSSS00160379462 MCULE-4057324543 PubChem-77079754 ZINC000215047053
 23 24 0 0 0
SMALL
GASTEIGER

@<TRIPOS>ATOM
      1 C          12.8195   41.3635    8.8042 C.3     1  UNL1        0.0994
      2 C          11.3561   41.4716    9.0707 C.ar    1  UNL1       -0.0061
      3 C          10.8690   42.5208    9.8549 C.ar    1  UNL1       -0.0016
      4 C           9.4996   42.6231   10.1167 C.ar    1  UNL1        0.0144
      5 C           8.6068   41.6776    9.6004 C.ar    1  UNL1        0.0503
      6 C           9.1013   40.6225    8.8181 C.ar    1  UNL1        0.0144
      7 C          10.4702   40.5188    8.5556 C.ar    1  UNL1       -0.0016
      8 C           6.5617   41.5445   11.1398 C.2     1  UNL1        0.2266
      9 C           5.0950   41.7489   11.2580 C.3     1  UNL1        0.0949
     10 N           7.2094   41.8175    9.8908 N.am    1  UNL1       -0.2839
     11 O           7.2104   41.1351   12.1384 O.2     1  UNL1       -0.2748
     12 H           6.6355   42.1338    9.1560 H       1  UNL1        0.1549
     13 C          12.1819   42.0695    6.6442 C.3     1  UNL1        0.0902
     14 N          13.1929   42.2156    7.6810 N.3     1  UNL1       -0.2639
     15 C          14.5161   41.8364    7.1621 C.3     1  UNL1        0.1018
     16 C          15.5416   42.9422    7.2079 C.ar    1  UNL1        0.0221
     17 C          16.7268   42.9682    7.9121 C.ar    1  UNL1        0.0504
     18 C          17.2263   41.9219    8.8463 C.3     1  UNL1        0.0512
     19 C          15.5853   44.0866    6.4404 C.ar    1  UNL1        0.0771
     20 C          14.5773   44.5180    5.4339 C.3     1  UNL1        0.0537
     21 N          17.4178   44.0797    7.5961 N.ar    1  UNL1       -0.2803
     22 N          16.7211   44.7624    6.6981 N.ar    1  UNL1       -0.1776
     23 H          18.2910   44.3409    7.9682 H       1  UNL1        0.1885
@<TRIPOS>BOND
     1    13    14    1
     2    15    14    1
     3    15    16    1
     4    17    21   ar
     5    18    17    1
     6    19    16   ar
     7    20    19    1
     8     1    14    1
     9     1     2    1
    10     3     4   ar
    11     5    10    1
    12     5     6   ar
    13     9     8    1
    14     7     2   ar
    15    21    22   ar
    16    10     8   am
    17    16    17   ar
    18    19    22   ar
    19     2     3   ar
    20     4     5   ar
    21     8    11    2
    22     6     7   ar
    23    21    23    1
    24    10    12    1
@<TRIPOS>MOLECULE
MolPort-035-369-422 215047053 CSSS00160379462 MCULE-4057324543 PubChem-77079754 ZINC000215047053
 23 24 0 0 0
SMALL
GASTEIGER

@<TRIPOS>ATOM
      1 C          10.7794   40.4704    6.7322 C.3     1  UNL1        0.0994
      2 C          12.1564   40.9511    7.0436 C.ar    1  UNL1       -0.0061
      3 C          12.7161   41.9880    6.2921 C.ar    1  UNL1       -0.0016
      4 C          14.0099   42.4374    6.5720 C.ar    1  UNL1        0.0144
      5 C          14.7556   41.8534    7.6019 C.ar    1  UNL1        0.0503
      6 C          14.1915   40.8085    8.3500 C.ar    1  UNL1        0.0144
      7 C          12.8981   40.3580    8.0713 C.ar    1  UNL1       -0.0016
      8 C          16.5704   43.6634    7.5970 C.2     1  UNL1        0.2266
      9 C          17.9797   43.9941    7.9312 C.3     1  UNL1        0.0949
     10 N          16.0790   42.3428    7.8586 N.am    1  UNL1       -0.2839
     11 O          15.8322   44.5487    7.0899 O.2     1  UNL1       -0.2748
     12 H          16.7158   41.7057    8.2557 H       1  UNL1        0.1549
     13 C           9.8763   38.5878    7.8326 C.3     1  UNL1        0.0902
     14 N          10.1146   40.0188    7.9493 N.3     1  UNL1       -0.2639
     15 C           8.8441   40.7350    8.1404 C.3     1  UNL1        0.1018
     16 C           8.9418   41.9453    9.0361 C.ar    1  UNL1        0.0221
     17 C           8.2454   43.1311    8.9349 C.ar    1  UNL1        0.0504
     18 C           7.2804   43.5041    7.8642 C.3     1  UNL1        0.0512
     19 C           9.6282   42.0629   10.2259 C.ar    1  UNL1        0.0771
     20 C          10.4904   41.0274   10.8580 C.3     1  UNL1        0.0537
     21 N           8.5269   43.9140    9.9935 N.ar    1  UNL1       -0.2803
     22 N           9.3710   43.2624   10.7812 N.ar    1  UNL1       -0.1776
     23 H           8.1674   44.8162   10.1549 H       1  UNL1        0.1885
@<TRIPOS>BOND
     1    13    14    1
     2    15    14    1
     3    15    16    1
     4    17    21   ar
     5    18    17    1
     6    19    16   ar
     7    20    19    1
     8     1    14    1
     9     1     2    1
    10     3     4   ar
    11     5    10    1
    12     5     6   ar
    13     9     8    1
    14     7     2   ar
    15    21    22   ar
    16    10     8   am
    17    16    17   ar
    18    19    22   ar
    19     2     3   ar
    20     4     5   ar
    21     8    11    2
    22     6     7   ar
    23    21    23    1
    24    10    12    1
@<TRIPOS>MOLECULE
MolPort-035-369-422 215047053 CSSS00160379462 MCULE-4057324543 PubChem-77079754 ZINC000215047053
 23 24 0 0 0
SMALL
GASTEIGER

@<TRIPOS>ATOM
      1 C           9.2070   40.5057    8.4007 C.3     1  UNL1        0.0994
      2 C          10.5319   40.9982    7.9250 C.ar    1  UNL1       -0.0061
      3 C          11.6078   41.0649    8.8143 C.ar    1  UNL1       -0.0016
      4 C          12.8501   41.5344    8.3779 C.ar    1  UNL1        0.0144
      5 C          13.0269   41.9434    7.0515 C.ar    1  UNL1        0.0503
      6 C          11.9420   41.8799    6.1635 C.ar    1  UNL1        0.0144
      7 C          10.6993   41.4109    6.5984 C.ar    1  UNL1       -0.0016
      8 C          14.6023   43.6491    5.9659 C.2     1  UNL1        0.2266
      9 C          16.0087   43.9784    5.6184 C.3     1  UNL1        0.0949
     10 N          14.3168   42.4182    6.6421 N.am    1  UNL1       -0.2839
     11 O          13.6856   44.4567    5.6604 O.2     1  UNL1       -0.2748
     12 H          15.0858   41.8385    6.8467 H       1  UNL1        0.1549
     13 C           8.6187   41.8908   10.2190 C.3     1  UNL1        0.0902
     14 N           8.3684   41.6267    8.8098 N.3     1  UNL1       -0.2639
     15 C           6.9473   41.3154    8.5923 C.3     1  UNL1        0.1018
     16 C           6.0619   42.5277    8.4407 C.ar    1  UNL1        0.0221
     17 C           6.0319   43.4282    7.3969 C.ar    1  UNL1        0.0504
     18 C           6.9267   43.4365    6.2070 C.3     1  UNL1        0.0512
     19 C           4.9974   42.9012    9.2332 C.ar    1  UNL1        0.0771
     20 C           4.5282   42.2156   10.4683 C.3     1  UNL1        0.0537
     21 N           5.0217   44.2996    7.5787 N.ar    1  UNL1       -0.2803
     22 N           4.3905   43.9782    8.6994 N.ar    1  UNL1       -0.1776
     23 H           4.7912   45.0476    6.9815 H       1  UNL1        0.1885
@<TRIPOS>BOND
     1    13    14    1
     2    15    14    1
     3    15    16    1
     4    17    21   ar
     5    18    17    1
     6    19    16   ar
     7    20    19    1
     8     1    14    1
     9     1     2    1
    10     3     4   ar
    11     5    10    1
    12     5     6   ar
    13     9     8    1
    14     7     2   ar
    15    21    22   ar
    16    10     8   am
    17    16    17   ar
    18    19    22   ar
    19     2     3   ar
    20     4     5   ar
    21     8    11    2
    22     6     7   ar
    23    21    23    1
    24    10    12    1
@<TRIPOS>MOLECULE
MolPort-035-369-422 215047053 CSSS00160379462 MCULE-4057324543 PubChem-77079754 ZINC000215047053
 23 24 0 0 0
SMALL
GASTEIGER

@<TRIPOS>ATOM
      1 C          12.5085   41.5776    8.8557 C.3     1  UNL1        0.0994
      2 C          11.0798   41.9140    9.1200 C.ar    1  UNL1       -0.0061
      3 C          10.7505   43.1491    9.6851 C.ar    1  UNL1       -0.0016
      4 C           9.4143   43.4675    9.9444 C.ar    1  UNL1        0.0144
      5 C           8.3972   42.5547    9.6444 C.ar    1  UNL1        0.0503
      6 C           8.7332   41.3134    9.0823 C.ar    1  UNL1        0.0144
      7 C          10.0688   40.9935    8.8225 C.ar    1  UNL1       -0.0016
      8 C           5.9136   42.7716    9.0490 C.2     1  UNL1        0.2266
      9 C           4.5705   43.2059    9.5121 C.3     1  UNL1        0.0949
     10 N           7.0386   42.9188    9.9245 N.am    1  UNL1       -0.2839
     11 O           6.0405   42.2819    7.8958 O.2     1  UNL1       -0.2748
     12 H           6.8604   43.3103   10.8101 H       1  UNL1        0.1549
     13 C          11.9732   42.0270    6.6013 C.3     1  UNL1        0.0902
     14 N          12.9679   42.2425    7.6416 N.3     1  UNL1       -0.2639
     15 C          14.2720   41.7072    7.2211 C.3     1  UNL1        0.1018
     16 C          15.3761   42.7339    7.1648 C.ar    1  UNL1        0.0221
     17 C          15.4020   43.9099    6.4453 C.ar    1  UNL1        0.0504
     18 C          14.3574   44.3954    5.5020 C.3     1  UNL1        0.0512
     19 C          16.5184   42.7896    7.9347 C.ar    1  UNL1        0.0771
     20 C          16.9489   41.7955    8.9554 C.3     1  UNL1        0.0537
     21 N          16.5115   44.6069    6.7553 N.ar    1  UNL1       -0.2803
     22 N          17.1930   43.9232    7.6640 N.ar    1  UNL1       -0.1776
     23 H          16.7721   45.4757    6.3725 H       1  UNL1        0.1885
@<TRIPOS>BOND
     1    13    14    1
     2    15    14    1
     3    15    16    1
     4    17    21   ar
     5    18    17    1
     6    19    16   ar
     7    20    19    1
     8     1    14    1
     9     1     2    1
    10     3     4   ar
    11     5    10    1
    12     5     6   ar
    13     9     8    1
    14     7     2   ar
    15    21    22   ar
    16    10     8   am
    17    16    17   ar
    18    19    22   ar
    19     2     3   ar
    20     4     5   ar
    21     8    11    2
    22     6     7   ar
    23    21    23    1
    24    10    12    1
@<TRIPOS>MOLECULE
MolPort-035-369-422 215047053 CSSS00160379462 MCULE-4057324543 PubChem-77079754 ZINC000215047053
 23 24 0 0 0
SMALL
GASTEIGER

@<TRIPOS>ATOM
      1 C           9.3862   40.3417    8.0885 C.3     1  UNL1        0.0994
      2 C          10.7131   40.8920    7.6876 C.ar    1  UNL1       -0.0061
      3 C          11.6822   41.1461    8.6620 C.ar    1  UNL1       -0.0016
      4 C          12.9249   41.6707    8.2948 C.ar    1  UNL1        0.0144
      5 C          13.2084   41.9482    6.9531 C.ar    1  UNL1        0.0503
      6 C          12.2300   41.6968    5.9788 C.ar    1  UNL1        0.0144
      7 C          10.9871   41.1724    6.3444 C.ar    1  UNL1       -0.0016
      8 C          14.7594   43.7373    5.9715 C.2     1  UNL1        0.2266
      9 C          16.1656   44.1330    5.7010 C.3     1  UNL1        0.0949
     10 N          14.4950   42.4851    6.6165 N.am    1  UNL1       -0.2839
     11 O          13.8244   44.5084    5.6295 O.2     1  UNL1       -0.2748
     12 H          15.2776   41.9367    6.8530 H       1  UNL1        0.1549
     13 C           8.6803   41.6536    9.9191 C.3     1  UNL1        0.0902
     14 N           8.4934   41.4211    8.4946 N.3     1  UNL1       -0.2639
     15 C           7.0935   41.0673    8.2135 C.3     1  UNL1        0.1018
     16 C           6.0937   42.1255    8.6099 C.ar    1  UNL1        0.0221
     17 C           5.2486   42.1251    9.6995 C.ar    1  UNL1        0.0504
     18 C           5.0905   41.0326   10.6987 C.3     1  UNL1        0.0512
     19 C           5.9243   43.3774    8.0579 C.ar    1  UNL1        0.0771
     20 C           6.6562   43.9372    6.8889 C.3     1  UNL1        0.0537
     21 N           4.5984   43.3020    9.7695 N.ar    1  UNL1       -0.2803
     22 N           5.0105   44.0662    8.7676 N.ar    1  UNL1       -0.1776
     23 H           3.9310   43.5523   10.4486 H       1  UNL1        0.1885
@<TRIPOS>BOND
     1    13    14    1
     2    15    14    1
     3    15    16    1
     4    17    21   ar
     5    18    17    1
     6    19    16   ar
     7    20    19    1
     8     1    14    1
     9     1     2    1
    10     3     4   ar
    11     5    10    1
    12     5     6   ar
    13     9     8    1
    14     7     2   ar
    15    21    22   ar
    16    10     8   am
    17    16    17   ar
    18    19    22   ar
    19     2     3   ar
    20     4     5   ar
    21     8    11    2
    22     6     7   ar
    23    21    23    1
    24    10    12    1
@<TRIPOS>MOLECULE
MolPort-035-369-422 215047053 CSSS00160379462 MCULE-4057324543 PubChem-77079754 ZINC000215047053
 23 24 0 0 0
SMALL
GASTEIGER

@<TRIPOS>ATOM
      1 C          11.5850   40.0541    9.5886 C.3     1  UNL1        0.0994
      2 C          12.7816   40.7033    8.9796 C.ar    1  UNL1       -0.0061
      3 C          14.0581   40.3916    9.4555 C.ar    1  UNL1       -0.0016
      4 C          15.1836   41.0033    8.8960 C.ar    1  UNL1        0.0144
      5 C          15.0433   41.9327    7.8594 C.ar    1  UNL1        0.0503
      6 C          13.7590   42.2468    7.3887 C.ar    1  UNL1        0.0144
      7 C          12.6327   41.6361    7.9473 C.ar    1  UNL1       -0.0016
      8 C          16.2731   43.5906    6.3400 C.2     1  UNL1        0.2266
      9 C          17.5937   44.0971    5.8854 C.3     1  UNL1        0.0949
     10 N          16.2222   42.5380    7.3112 N.am    1  UNL1       -0.2839
     11 O          15.2216   44.0946    5.8644 O.2     1  UNL1       -0.2748
     12 H          17.0861   42.1948    7.6356 H       1  UNL1        0.1549
     13 C          10.2805   40.8070   11.4057 C.3     1  UNL1        0.0902
     14 N          10.6239   41.0647   10.0151 N.3     1  UNL1       -0.2639
     15 C           9.4182   41.0190    9.1736 C.3     1  UNL1        0.1018
     16 C           8.6177   42.2979    9.1650 C.ar    1  UNL1        0.0221
     17 C           7.2620   42.4461    8.9613 C.ar    1  UNL1        0.0504
     18 C           6.2911   41.3657    8.6346 C.3     1  UNL1        0.0512
     19 C           9.0427   43.5633    9.5099 C.ar    1  UNL1        0.0771
     20 C          10.4224   43.9581    9.9049 C.3     1  UNL1        0.0537
     21 N           6.9130   43.7327    9.1502 N.ar    1  UNL1       -0.2803
     22 N           7.9997   44.4146    9.4848 N.ar    1  UNL1       -0.1776
     23 H           6.0060   44.1037    9.0561 H       1  UNL1        0.1885
@<TRIPOS>BOND
     1    13    14    1
     2    15    14    1
     3    15    16    1
     4    17    21   ar
     5    18    17    1
     6    19    16   ar
     7    20    19    1
     8     1    14    1
     9     1     2    1
    10     3     4   ar
    11     5    10    1
    12     5     6   ar
    13     9     8    1
    14     7     2   ar
    15    21    22   ar
    16    10     8   am
    17    16    17   ar
    18    19    22   ar
    19     2     3   ar
    20     4     5   ar
    21     8    11    2
    22     6     7   ar
    23    21    23    1
    24    10    12    1
@<TRIPOS>MOLECULE
MolPort-035-369-422 215047053 CSSS00160379462 MCULE-4057324543 PubChem-77079754 ZINC000215047053
 23 24 0 0 0
SMALL
GASTEIGER

@<TRIPOS>ATOM
      1 C           7.4846   42.6595    8.7044 C.3     1  UNL1        0.0994
      2 C           8.1247   41.6668    7.7939 C.ar    1  UNL1       -0.0061
      3 C           7.4109   40.5361    7.3878 C.ar    1  UNL1       -0.0016
      4 C           8.0076   39.5965    6.5420 C.ar    1  UNL1        0.0144
      5 C           9.3221   39.7771    6.0977 C.ar    1  UNL1        0.0503
      6 C          10.0369   40.9113    6.5127 C.ar    1  UNL1        0.0144
      7 C           9.4417   41.8514    7.3584 C.ar    1  UNL1       -0.0016
      8 C           9.6235   38.6102    3.8355 C.2     1  UNL1        0.2266
      9 C          10.3205   37.5297    3.0914 C.3     1  UNL1        0.0949
     10 N           9.8987   38.7912    5.2303 N.am    1  UNL1       -0.2839
     11 O           8.8034   39.3481    3.2284 O.2     1  UNL1       -0.2748
     12 H          10.5512   38.1750    5.6349 H       1  UNL1        0.1549
     13 C           6.1010   44.1067    7.4547 C.3     1  UNL1        0.0902
     14 N           6.1101   42.9138    8.2885 N.3     1  UNL1       -0.2639
     15 C           5.2419   43.1026    9.4609 C.3     1  UNL1        0.1018
     16 C           4.9153   41.8304   10.2034 C.ar    1  UNL1        0.0221
     17 C           5.6410   41.2278   11.2092 C.ar    1  UNL1        0.0504
     18 C           6.9578   41.6737   11.7419 C.3     1  UNL1        0.0512
     19 C           3.7539   41.0901   10.1416 C.ar    1  UNL1        0.0771
     20 C           2.5810   41.3527    9.2637 C.3     1  UNL1        0.0537
     21 N           4.9559   40.1752   11.6945 N.ar    1  UNL1       -0.2803
     22 N           3.8044   40.0910   11.0429 N.ar    1  UNL1       -0.1776
     23 H           5.2584   39.5713   12.4108 H       1  UNL1        0.1885
@<TRIPOS>BOND
     1    13    14    1
     2    15    14    1
     3    15    16    1
     4    17    21   ar
     5    18    17    1
     6    19    16   ar
     7    20    19    1
     8     1    14    1
     9     1     2    1
    10     3     4   ar
    11     5    10    1
    12     5     6   ar
    13     9     8    1
    14     7     2   ar
    15    21    22   ar
    16    10     8   am
    17    16    17   ar
    18    19    22   ar
    19     2     3   ar
    20     4     5   ar
    21     8    11    2
    22     6     7   ar
    23    21    23    1
    24    10    12    1
@<TRIPOS>MOLECULE
MolPort-035-369-422 215047053 CSSS00160379462 MCULE-4057324543 PubChem-77079754 ZINC000215047053
 23 24 0 0 0
SMALL
GASTEIGER

@<TRIPOS>ATOM
      1 C          10.9253   40.4463    7.5659 C.3     1  UNL1        0.0994
      2 C          12.3317   40.9340    7.6572 C.ar    1  UNL1       -0.0061
      3 C          12.8278   41.8079    6.6860 C.ar    1  UNL1       -0.0016
      4 C          14.1480   42.2617    6.7598 C.ar    1  UNL1        0.0144
      5 C          14.9835   41.8444    7.8016 C.ar    1  UNL1        0.0503
      6 C          14.4827   40.9621    8.7714 C.ar    1  UNL1        0.0144
      7 C          13.1630   40.5075    8.6989 C.ar    1  UNL1       -0.0016
      8 C          16.7670   43.6711    7.5727 C.2     1  UNL1        0.2266
      9 C          18.2134   43.9974    7.6655 C.3     1  UNL1        0.0949
     10 N          16.3314   42.3327    7.8429 N.am    1  UNL1       -0.2839
     11 O          15.9490   44.5754    7.2585 O.2     1  UNL1       -0.2748
     12 H          17.0297   41.6811    8.0816 H       1  UNL1        0.1549
     13 C           9.1859   41.1572    8.9942 C.3     1  UNL1        0.0902
     14 N           9.9943   41.5340    7.8441 N.3     1  UNL1       -0.2639
     15 C           9.1358   41.7905    6.6774 C.3     1  UNL1        0.1018
     16 C           7.9230   40.8971    6.5901 C.ar    1  UNL1        0.0221
     17 C           6.6481   41.1542    7.0482 C.ar    1  UNL1        0.0504
     18 C           6.2020   42.3601    7.7989 C.3     1  UNL1        0.0512
     19 C           7.7962   39.7092    5.9020 C.ar    1  UNL1        0.0771
     20 C           8.8657   39.0064    5.1419 C.3     1  UNL1        0.0537
     21 N           5.8222   40.1594    6.6728 N.ar    1  UNL1       -0.2803
     22 N           6.5228   39.2774    5.9735 N.ar    1  UNL1       -0.1776
     23 H           4.8621   40.0975    6.8819 H       1  UNL1        0.1885
@<TRIPOS>BOND
     1    13    14    1
     2    15    14    1
     3    15    16    1
     4    17    21   ar
     5    18    17    1
     6    19    16   ar
     7    20    19    1
     8     1    14    1
     9     1     2    1
    10     3     4   ar
    11     5    10    1
    12     5     6   ar
    13     9     8    1
    14     7     2   ar
    15    21    22   ar
    16    10     8   am
    17    16    17   ar
    18    19    22   ar
    19     2     3   ar
    20     4     5   ar
    21     8    11    2
    22     6     7   ar
    23    21    23    1
    24    10    12    1
@<TRIPOS>MOLECULE
MolPort-035-369-422 215047053 CSSS00160379462 MCULE-4057324543 PubChem-77079754 ZINC000215047053
 23 24 0 0 0
SMALL
GASTEIGER

@<TRIPOS>ATOM
      1 C          10.7673   40.3503   10.1841 C.3     1  UNL1        0.0994
      2 C          11.8925   40.9003    9.3744 C.ar    1  UNL1       -0.0061
      3 C          13.1898   40.4195    9.5719 C.ar    1  UNL1       -0.0016
      4 C          14.2508   40.9370    8.8232 C.ar    1  UNL1        0.0144
      5 C          14.0255   41.9402    7.8742 C.ar    1  UNL1        0.0503
      6 C          12.7220   42.4239    7.6834 C.ar    1  UNL1        0.0144
      7 C          11.6601   41.9076    8.4313 C.ar    1  UNL1       -0.0016
      8 C          15.1674   43.6327    6.3246 C.2     1  UNL1        0.2266
      9 C          16.4195   44.0028    5.6158 C.3     1  UNL1        0.0949
     10 N          15.1400   42.4447    7.1257 N.am    1  UNL1       -0.2839
     11 O          14.1522   44.3688    6.2094 O.2     1  UNL1       -0.2748
     12 H          15.9724   41.9207    7.1664 H       1  UNL1        0.1549
     13 C           9.2319   41.2384   11.7412 C.3     1  UNL1        0.0902
     14 N           9.7439   41.3697   10.3851 N.3     1  UNL1       -0.2639
     15 C           8.6549   41.2082    9.4094 C.3     1  UNL1        0.1018
     16 C           7.7230   42.3912    9.3171 C.ar    1  UNL1        0.0221
     17 C           8.0405   43.7287    9.4243 C.ar    1  UNL1        0.0504
     18 C           9.3820   44.3002    9.7255 C.3     1  UNL1        0.0512
     19 C           6.3929   42.3929    8.9546 C.ar    1  UNL1        0.0771
     20 C           5.5587   41.2015    8.6381 C.3     1  UNL1        0.0537
     21 N           6.9508   44.4757    9.1650 N.ar    1  UNL1       -0.2803
     22 N           5.9452   43.6606    8.8785 N.ar    1  UNL1       -0.1776
     23 H           6.9080   45.4591    9.1846 H       1  UNL1        0.1885
@<TRIPOS>BOND
     1    13    14    1
     2    15    14    1
     3    15    16    1
     4    17    21   ar
     5    18    17    1
     6    19    16   ar
     7    20    19    1
     8     1    14    1
     9     1     2    1
    10     3     4   ar
    11     5    10    1
    12     5     6   ar
    13     9     8    1
    14     7     2   ar
    15    21    22   ar
    16    10     8   am
    17    16    17   ar
    18    19    22   ar
    19     2     3   ar
    20     4     5   ar
    21     8    11    2
    22     6     7   ar
    23    21    23    1
    24    10    12    1
