@<TRIPOS>MOLECULE
MolPort-047-072-147 PubChem-132766983
 32 35 0 0 0
SMALL
GASTEIGER

@<TRIPOS>ATOM
      1 C          12.4212   42.1081    6.0032 C.ar    1  UNL1        0.1361
      2 C          11.6073   42.5248    7.0560 C.ar    1  UNL1        0.0492
      3 C          10.4454   41.8033    7.3293 C.ar    1  UNL1        0.0644
      4 C          10.9328   40.3238    5.5498 C.ar    1  UNL1        0.1406
      5 C          10.5698   39.1352    4.7353 C.3     1  UNL1        0.0737
      6 N          10.1297   40.7174    6.5721 N.ar    1  UNL1       -0.2348
      7 N          12.0679   41.0163    5.2715 N.ar    1  UNL1       -0.2159
      8 C           9.5595   42.2326    8.4512 C.3     1  UNL1        0.0603
      9 C           9.3496   41.0890    9.4476 C.3     1  UNL1        0.0094
     10 C           8.3861   41.4524   10.5890 C.3     1  UNL1        0.0220
     11 C           7.6966   42.8032   10.3897 C.3     1  UNL1        0.0937
     12 C           8.2156   42.7359    7.9178 C.3     1  UNL1        0.0996
     13 C           5.9030   43.3326    8.6742 C.2     1  UNL1        0.2492
     14 N           7.2501   42.9405    9.0029 N.am    1  UNL1       -0.2757
     15 O           5.6697   43.8550    7.5516 O.2     1  UNL1       -0.2699
     16 C           4.7598   43.1430    9.5868 C.2     1  UNL1        0.0595
     17 C           4.6861   42.1708   10.4899 C.2     1  UNL1        0.0234
     18 C           3.5267   42.0195   11.3805 C.ar    1  UNL1        0.0797
     19 C           2.5820   42.9880   11.6722 C.ar    1  UNL1        0.0412
     20 C           1.7133   42.3483   12.5493 C.ar    1  UNL1        0.1217
     21 C           3.9626   39.6419   12.0154 C.3     1  UNL1        0.1537
     22 N           2.1292   41.0812   12.7555 N.ar    1  UNL1       -0.1676
     23 N           3.2246   40.8938   12.0452 N.ar    1  UNL1       -0.2488
     24 N          13.6165   42.8403    5.7126 N.pl3   1  UNL1       -0.2781
     25 H          13.6361   43.3579    4.8754 H       1  UNL1        0.1555
     26 C          16.8077   41.3750    9.1755 C.3     1  UNL1        0.0524
     27 C          16.2583   42.2494    8.1026 C.ar    1  UNL1        0.0633
     28 C          14.7855   42.8829    6.5372 C.ar    1  UNL1        0.1639
     29 C          16.8800   43.4153    7.6651 C.ar    1  UNL1        0.0238
     30 C          18.1612   43.9793    8.1726 C.3     1  UNL1        0.0395
     31 N          15.0909   41.9548    7.4722 N.ar    1  UNL1       -0.2286
     32 S          15.9408   44.1016    6.4506 S.2     1  UNL1       -0.0561
@<TRIPOS>BOND
     1    26    27    1
     2    27    31   ar
     3    28    24    1
     4    28    32   ar
     5     1     7   ar
     6     2     3   ar
     7     4     6   ar
     8     5     4    1
     9     8     3    1
    10     8     9    1
    11     9    10    1
    12    10    11    1
    13    11    14    1
    14    12    14    1
    15    12     8    1
    16    13    16    1
    17    17    18    1
    18    19    20   ar
    19    21    23    1
    20    29    32   ar
    21    30    29    1
    22    24     1    1
    23    14    13   am
    24    23    22   ar
    25    23    18   ar
    26    28    31   ar
    27     1     2   ar
    28     3     6   ar
    29     4     7   ar
    30    13    15    2
    31    16    17    2
    32    18    19   ar
    33    20    22   ar
    34    29    27   ar
    35    24    25    1
@<TRIPOS>MOLECULE
MolPort-047-072-147 PubChem-132766983
 32 35 0 0 0
SMALL
GASTEIGER

@<TRIPOS>ATOM
      1 C           2.9441   42.0484   11.8006 C.ar    1  UNL1        0.1361
      2 C           4.3045   42.2228   11.5491 C.ar    1  UNL1        0.0492
      3 C           4.7880   41.9536   10.2688 C.ar    1  UNL1        0.0644
      4 C           2.6103   41.3648    9.5587 C.ar    1  UNL1        0.1406
      5 C           1.6940   40.9014    8.4847 C.3     1  UNL1        0.0737
      6 N           3.9331   41.5300    9.2982 N.ar    1  UNL1       -0.2348
      7 N           2.1245   41.6232   10.8007 N.ar    1  UNL1       -0.2159
      8 C           6.2409   42.1330    9.9782 C.3     1  UNL1        0.0603
      9 C           6.6387   41.3803    8.7054 C.3     1  UNL1        0.0094
     10 C           8.1417   41.4709    8.3957 C.3     1  UNL1        0.0220
     11 C           8.9501   42.1288    9.5153 C.3     1  UNL1        0.0937
     12 C           7.0915   41.6719   11.1648 C.3     1  UNL1        0.0996
     13 C           9.4546   41.1237   11.7902 C.2     1  UNL1        0.2492
     14 N           8.5152   41.6190   10.8162 N.am    1  UNL1       -0.2757
     15 O           9.1297   41.1083   13.0075 O.2     1  UNL1       -0.2699
     16 C          10.7926   40.6131   11.4370 C.2     1  UNL1        0.0595
     17 C          11.5344   41.1010   10.4481 C.2     1  UNL1        0.0234
     18 C          12.8643   40.5615   10.1312 C.ar    1  UNL1        0.0797
     19 C          13.6375   39.7502   10.9433 C.ar    1  UNL1        0.0412
     20 C          14.7843   39.5257   10.1897 C.ar    1  UNL1        0.1217
     21 C          13.0584   41.5942    7.8636 C.3     1  UNL1        0.1537
     22 N          14.6834   40.1693    9.0080 N.ar    1  UNL1       -0.1676
     23 N          13.5205   40.7912    8.9836 N.ar    1  UNL1       -0.2488
     24 N           2.4355   42.3213   13.1106 N.pl3   1  UNL1       -0.2781
     25 H           3.0848   42.3465   13.8503 H       1  UNL1        0.1555
     26 C          -2.3631   41.3178   13.6474 C.3     1  UNL1        0.0524
     27 C          -1.1239   42.1424   13.6924 C.ar    1  UNL1        0.0633
     28 C           1.0624   42.5607   13.4352 C.ar    1  UNL1        0.1639
     29 C          -1.0952   43.4674   14.1174 C.ar    1  UNL1        0.0238
     30 C          -2.2569   44.2717   14.5874 C.3     1  UNL1        0.0395
     31 N           0.0801   41.6393   13.3126 N.ar    1  UNL1       -0.2286
     32 S           0.4864   44.0299   14.0157 S.2     1  UNL1       -0.0561
@<TRIPOS>BOND
     1    26    27    1
     2    27    31   ar
     3    28    24    1
     4    28    32   ar
     5     1     7   ar
     6     2     3   ar
     7     4     6   ar
     8     5     4    1
     9     8     3    1
    10     8     9    1
    11     9    10    1
    12    10    11    1
    13    11    14    1
    14    12    14    1
    15    12     8    1
    16    13    16    1
    17    17    18    1
    18    19    20   ar
    19    21    23    1
    20    29    32   ar
    21    30    29    1
    22    24     1    1
    23    14    13   am
    24    23    22   ar
    25    23    18   ar
    26    28    31   ar
    27     1     2   ar
    28     3     6   ar
    29     4     7   ar
    30    13    15    2
    31    16    17    2
    32    18    19   ar
    33    20    22   ar
    34    29    27   ar
    35    24    25    1
@<TRIPOS>MOLECULE
MolPort-047-072-147 PubChem-132766983
 32 35 0 0 0
SMALL
GASTEIGER

@<TRIPOS>ATOM
      1 C           8.4810   41.2284   10.3444 C.ar    1  UNL1        0.1361
      2 C           9.7694   41.1478    9.8172 C.ar    1  UNL1        0.0492
      3 C          10.8500   41.0914   10.6972 C.ar    1  UNL1        0.0644
      4 C           9.3695   41.1947   12.5386 C.ar    1  UNL1        0.1406
      5 C           9.1517   41.2202   14.0082 C.3     1  UNL1        0.0737
      6 N          10.6305   41.1159   12.0402 N.ar    1  UNL1       -0.2348
      7 N           8.3069   41.2502   11.6941 N.ar    1  UNL1       -0.2159
      8 C          12.2375   41.0055   10.1541 C.3     1  UNL1        0.0603
      9 C          12.2206   40.5949    8.6790 C.3     1  UNL1        0.0094
     10 C          13.6277   40.4209    8.0849 C.3     1  UNL1        0.0220
     11 C          14.7398   40.5086    9.1316 C.3     1  UNL1        0.0937
     12 C          13.0812   40.0275   10.9760 C.3     1  UNL1        0.0996
     13 C          15.2550   38.7834   10.9200 C.2     1  UNL1        0.2492
     14 N          14.3669   39.7507   10.3265 N.am    1  UNL1       -0.2757
     15 O          15.1150   38.4825   12.1355 O.2     1  UNL1       -0.2699
     16 C          16.3287   38.1042   10.1706 C.2     1  UNL1        0.0595
     17 C          16.2399   36.8596    9.7133 C.2     1  UNL1        0.0234
     18 C          17.3356   36.2217    8.9697 C.ar    1  UNL1        0.0797
     19 C          18.6597   36.1413    9.3643 C.ar    1  UNL1        0.0412
     20 C          19.2729   35.4519    8.3242 C.ar    1  UNL1        0.1217
     21 C          15.9627   35.4826    7.0165 C.3     1  UNL1        0.1537
     22 N          18.3580   35.1491    7.3796 N.ar    1  UNL1       -0.1676
     23 N          17.1923   35.6187    7.7797 N.ar    1  UNL1       -0.2488
     24 N           7.3635   41.2870    9.4516 N.pl3   1  UNL1       -0.2781
     25 H           7.5554   41.2584    8.4864 H       1  UNL1        0.1555
     26 C           2.4608   41.0149    8.9918 C.3     1  UNL1        0.0524
     27 C           3.7593   41.2724    9.6738 C.ar    1  UNL1        0.0633
     28 C           5.9908   41.3835    9.8445 C.ar    1  UNL1        0.1639
     29 C           3.8643   41.7110   10.9906 C.ar    1  UNL1        0.0238
     30 C           2.7374   41.9920   11.9225 C.3     1  UNL1        0.0395
     31 N           4.9461   41.0907    9.0372 N.ar    1  UNL1       -0.2286
     32 S           5.4934   41.8774   11.3730 S.2     1  UNL1       -0.0561
@<TRIPOS>BOND
     1    26    27    1
     2    27    31   ar
     3    28    24    1
     4    28    32   ar
     5     1     7   ar
     6     2     3   ar
     7     4     6   ar
     8     5     4    1
     9     8     3    1
    10     8     9    1
    11     9    10    1
    12    10    11    1
    13    11    14    1
    14    12    14    1
    15    12     8    1
    16    13    16    1
    17    17    18    1
    18    19    20   ar
    19    21    23    1
    20    29    32   ar
    21    30    29    1
    22    24     1    1
    23    14    13   am
    24    23    22   ar
    25    23    18   ar
    26    28    31   ar
    27     1     2   ar
    28     3     6   ar
    29     4     7   ar
    30    13    15    2
    31    16    17    2
    32    18    19   ar
    33    20    22   ar
    34    29    27   ar
    35    24    25    1
@<TRIPOS>MOLECULE
MolPort-047-072-147 PubChem-132766983
 32 35 0 0 0
SMALL
GASTEIGER

@<TRIPOS>ATOM
      1 C           2.8454   42.3113   11.7807 C.ar    1  UNL1        0.1361
      2 C           4.2269   42.1238   11.7513 C.ar    1  UNL1        0.0492
      3 C           4.8001   41.5507   10.6163 C.ar    1  UNL1        0.0644
      4 C           2.6656   41.3774    9.6127 C.ar    1  UNL1        0.1406
      5 C           1.8210   40.9748    8.4584 C.3     1  UNL1        0.0737
      6 N           4.0099   41.1884    9.5690 N.ar    1  UNL1       -0.2348
      7 N           2.0927   41.9346   10.7112 N.ar    1  UNL1       -0.2159
      8 C           6.2768   41.3403   10.5642 C.3     1  UNL1        0.0603
      9 C           7.0076   42.4009   11.3923 C.3     1  UNL1        0.0094
     10 C           8.5380   42.2762   11.3173 C.3     1  UNL1        0.0220
     11 C           9.0099   41.2461   10.2895 C.3     1  UNL1        0.0937
     12 C           6.7744   41.3500    9.1164 C.3     1  UNL1        0.0996
     13 C           8.8805   41.4782    7.7657 C.2     1  UNL1        0.2492
     14 N           8.2395   41.3802    9.0526 N.am    1  UNL1       -0.2757
     15 O           8.2373   41.1578    6.7308 O.2     1  UNL1       -0.2699
     16 C          10.2657   41.9522    7.5859 C.2     1  UNL1        0.0595
     17 C          11.3162   41.1456    7.4751 C.2     1  UNL1        0.0234
     18 C          12.6806   41.6619    7.2961 C.ar    1  UNL1        0.0797
     19 C          13.0892   42.6000    6.3642 C.ar    1  UNL1        0.0412
     20 C          14.4510   42.7369    6.6088 C.ar    1  UNL1        0.1217
     21 C          13.7372   40.3127    9.1153 C.3     1  UNL1        0.1537
     22 N          14.8130   41.9251    7.6242 N.ar    1  UNL1       -0.1676
     23 N          13.7365   41.2810    8.0312 N.ar    1  UNL1       -0.2488
     24 N           2.2449   42.8986   12.9400 N.pl3   1  UNL1       -0.2781
     25 H           2.7712   43.5723   13.4282 H       1  UNL1        0.1555
     26 C          -2.4697   41.4563   12.8240 C.3     1  UNL1        0.0524
     27 C          -1.2008   41.9387   13.4359 C.ar    1  UNL1        0.0633
     28 C           0.9438   42.5882   13.4487 C.ar    1  UNL1        0.1639
     29 C          -1.0524   42.2038   14.7942 C.ar    1  UNL1        0.0238
     30 C          -2.0984   42.0583   15.8440 C.3     1  UNL1        0.0395
     31 N          -0.0866   42.1538   12.6881 N.ar    1  UNL1       -0.2286
     32 S           0.5226   42.7243   15.0710 S.2     1  UNL1       -0.0561
@<TRIPOS>BOND
     1    26    27    1
     2    27    31   ar
     3    28    24    1
     4    28    32   ar
     5     1     7   ar
     6     2     3   ar
     7     4     6   ar
     8     5     4    1
     9     8     3    1
    10     8     9    1
    11     9    10    1
    12    10    11    1
    13    11    14    1
    14    12    14    1
    15    12     8    1
    16    13    16    1
    17    17    18    1
    18    19    20   ar
    19    21    23    1
    20    29    32   ar
    21    30    29    1
    22    24     1    1
    23    14    13   am
    24    23    22   ar
    25    23    18   ar
    26    28    31   ar
    27     1     2   ar
    28     3     6   ar
    29     4     7   ar
    30    13    15    2
    31    16    17    2
    32    18    19   ar
    33    20    22   ar
    34    29    27   ar
    35    24    25    1
@<TRIPOS>MOLECULE
MolPort-047-072-147 PubChem-132766983
 32 35 0 0 0
SMALL
GASTEIGER

@<TRIPOS>ATOM
      1 C           7.3730   41.2555   11.2097 C.ar    1  UNL1        0.1361
      2 C           8.4648   40.9357   10.4032 C.ar    1  UNL1        0.0492
      3 C           9.7128   40.7676   11.0027 C.ar    1  UNL1        0.0644
      4 C           8.7690   41.2288   13.1216 C.ar    1  UNL1        0.1406
      5 C           8.9316   41.3875   14.5900 C.3     1  UNL1        0.0737
      6 N           9.8419   40.9171   12.3493 N.ar    1  UNL1       -0.2348
      7 N           7.5469   41.3954   12.5523 N.ar    1  UNL1       -0.2159
      8 C          10.8948   40.4259   10.1579 C.3     1  UNL1        0.0603
      9 C          12.1821   40.4506   10.9869 C.3     1  UNL1        0.0094
     10 C          13.4430   40.1755   10.1516 C.3     1  UNL1        0.0220
     11 C          13.1707   40.1226    8.6473 C.3     1  UNL1        0.0937
     12 C          11.0030   41.3809    8.9662 C.3     1  UNL1        0.0996
     13 C          12.5853   42.0931    7.1593 C.2     1  UNL1        0.2492
     14 N          12.2772   41.2144    8.2590 N.am    1  UNL1       -0.2757
     15 O          11.6501   42.7094    6.5822 O.2     1  UNL1       -0.2699
     16 C          13.9572   42.3264    6.6700 C.2     1  UNL1        0.0595
     17 C          14.8000   43.1974    7.2153 C.2     1  UNL1        0.0234
     18 C          16.1600   43.3972    6.6949 C.ar    1  UNL1        0.0797
     19 C          16.5017   43.9987    5.4962 C.ar    1  UNL1        0.0412
     20 C          17.8906   43.9364    5.4797 C.ar    1  UNL1        0.1217
     21 C          17.3590   42.3424    8.6174 C.3     1  UNL1        0.1537
     22 N          18.3307   43.3335    6.6039 N.ar    1  UNL1       -0.1676
     23 N          17.2775   43.0122    7.3300 N.ar    1  UNL1       -0.2488
     24 N           6.0867   41.4306   10.6064 N.pl3   1  UNL1       -0.2781
     25 H           5.3527   40.8637   10.9366 H       1  UNL1        0.1555
     26 C           6.7387   43.9886    6.4406 C.3     1  UNL1        0.0524
     27 C           6.0388   43.5409    7.6765 C.ar    1  UNL1        0.0633
     28 C           5.7784   42.3608    9.5634 C.ar    1  UNL1        0.1639
     29 C           4.7952   44.0223    8.0749 C.ar    1  UNL1        0.0238
     30 C           3.9687   45.0358    7.3630 C.3     1  UNL1        0.0395
     31 N           6.5848   42.6149    8.5079 N.ar    1  UNL1       -0.2286
     32 S           4.3624   43.2665    9.5135 S.2     1  UNL1       -0.0561
@<TRIPOS>BOND
     1    26    27    1
     2    27    31   ar
     3    28    24    1
     4    28    32   ar
     5     1     7   ar
     6     2     3   ar
     7     4     6   ar
     8     5     4    1
     9     8     3    1
    10     8     9    1
    11     9    10    1
    12    10    11    1
    13    11    14    1
    14    12    14    1
    15    12     8    1
    16    13    16    1
    17    17    18    1
    18    19    20   ar
    19    21    23    1
    20    29    32   ar
    21    30    29    1
    22    24     1    1
    23    14    13   am
    24    23    22   ar
    25    23    18   ar
    26    28    31   ar
    27     1     2   ar
    28     3     6   ar
    29     4     7   ar
    30    13    15    2
    31    16    17    2
    32    18    19   ar
    33    20    22   ar
    34    29    27   ar
    35    24    25    1
@<TRIPOS>MOLECULE
MolPort-047-072-147 PubChem-132766983
 32 35 0 0 0
SMALL
GASTEIGER

@<TRIPOS>ATOM
      1 C           3.3478   42.0156   11.4226 C.ar    1  UNL1        0.1361
      2 C           4.6529   41.5273   11.4774 C.ar    1  UNL1        0.0492
      3 C           5.5653   41.9467   10.5095 C.ar    1  UNL1        0.0644
      4 C           3.8954   43.2822    9.4989 C.ar    1  UNL1        0.1406
      5 C           3.4847   44.2301    8.4308 C.3     1  UNL1        0.0737
      6 N           5.1703   42.8154    9.5390 N.ar    1  UNL1       -0.2348
      7 N           2.9954   42.8830   10.4348 N.ar    1  UNL1       -0.2159
      8 C           6.9670   41.4358   10.5492 C.3     1  UNL1        0.0603
      9 C           7.7199   42.0042   11.7553 C.3     1  UNL1        0.0094
     10 C           9.1930   41.5675   11.8077 C.3     1  UNL1        0.0220
     11 C           9.6450   40.8175   10.5534 C.3     1  UNL1        0.0937
     12 C           7.7023   41.7702    9.2486 C.3     1  UNL1        0.0996
     13 C           9.9997   41.8236    8.2509 C.2     1  UNL1        0.2492
     14 N           9.1378   41.4882    9.3559 N.am    1  UNL1       -0.2757
     15 O           9.4994   41.9838    7.1056 O.2     1  UNL1       -0.2699
     16 C          11.4570   42.0059    8.3879 C.2     1  UNL1        0.0595
     17 C          12.3453   41.5617    7.5048 C.2     1  UNL1        0.0234
     18 C          13.7901   41.7666    7.6812 C.ar    1  UNL1        0.0797
     19 C          14.6160   41.0860    8.5588 C.ar    1  UNL1        0.0412
     20 C          15.8680   41.6488    8.3375 C.ar    1  UNL1        0.1217
     21 C          14.0310   43.5810    5.9794 C.3     1  UNL1        0.1537
     22 N          15.7751   42.6013    7.3862 N.ar    1  UNL1       -0.1676
     23 N          14.5163   42.6639    6.9974 N.ar    1  UNL1       -0.2488
     24 N           2.4019   41.5927   12.4104 N.pl3   1  UNL1       -0.2781
     25 H           2.4239   40.6460   12.6797 H       1  UNL1        0.1555
     26 C           0.6132   45.5771   14.7010 C.3     1  UNL1        0.0524
     27 C           0.5778   44.2237   14.0807 C.ar    1  UNL1        0.0633
     28 C           1.4270   42.4307   13.0391 C.ar    1  UNL1        0.1639
     29 C          -0.5716   43.4430   14.0000 C.ar    1  UNL1        0.0238
     30 C          -1.9258   43.8067   14.5014 C.3     1  UNL1        0.0395
     31 N           1.6906   43.6571   13.5444 N.ar    1  UNL1       -0.2286
     32 S          -0.1859   41.9968   13.2333 S.2     1  UNL1       -0.0561
@<TRIPOS>BOND
     1    26    27    1
     2    27    31   ar
     3    28    24    1
     4    28    32   ar
     5     1     7   ar
     6     2     3   ar
     7     4     6   ar
     8     5     4    1
     9     8     3    1
    10     8     9    1
    11     9    10    1
    12    10    11    1
    13    11    14    1
    14    12    14    1
    15    12     8    1
    16    13    16    1
    17    17    18    1
    18    19    20   ar
    19    21    23    1
    20    29    32   ar
    21    30    29    1
    22    24     1    1
    23    14    13   am
    24    23    22   ar
    25    23    18   ar
    26    28    31   ar
    27     1     2   ar
    28     3     6   ar
    29     4     7   ar
    30    13    15    2
    31    16    17    2
    32    18    19   ar
    33    20    22   ar
    34    29    27   ar
    35    24    25    1
@<TRIPOS>MOLECULE
MolPort-047-072-147 PubChem-132766983
 32 35 0 0 0
SMALL
GASTEIGER

@<TRIPOS>ATOM
      1 C           2.7003   41.8918   11.9032 C.ar    1  UNL1        0.1361
      2 C           3.9569   42.4569   11.6879 C.ar    1  UNL1        0.0492
      3 C           4.4661   42.4808   10.3897 C.ar    1  UNL1        0.0644
      4 C           2.5133   41.4109    9.5927 C.ar    1  UNL1        0.1406
      5 C           1.7324   40.8454    8.4621 C.3     1  UNL1        0.0737
      6 N           3.7359   41.9579    9.3670 N.ar    1  UNL1       -0.2348
      7 N           2.0039   41.3804   10.8516 N.ar    1  UNL1       -0.2159
      8 C           5.8094   43.0802   10.1371 C.3     1  UNL1        0.0603
      9 C           5.9608   43.4772    8.6659 C.3     1  UNL1        0.0094
     10 C           7.3535   44.0357    8.3319 C.3     1  UNL1        0.0220
     11 C           8.3495   43.9031    9.4854 C.3     1  UNL1        0.0937
     12 C           6.9208   42.1122   10.5511 C.3     1  UNL1        0.0996
     13 C           9.3893   41.7472   10.3282 C.2     1  UNL1        0.2492
     14 N           8.2356   42.5795   10.0988 N.am    1  UNL1       -0.2757
     15 O           9.3380   40.8535   11.2149 O.2     1  UNL1       -0.2699
     16 C          10.6440   41.8748    9.5632 C.2     1  UNL1        0.0595
     17 C          10.6942   42.0592    8.2479 C.2     1  UNL1        0.0234
     18 C          11.9683   42.1820    7.5256 C.ar    1  UNL1        0.0797
     19 C          13.1052   42.8351    7.9687 C.ar    1  UNL1        0.0412
     20 C          14.0122   42.6609    6.9294 C.ar    1  UNL1        0.1217
     21 C          11.2694   40.9037    5.4949 C.3     1  UNL1        0.1537
     22 N          13.4358   41.9477    5.9394 N.ar    1  UNL1       -0.1676
     23 N          12.2021   41.6642    6.3100 N.ar    1  UNL1       -0.2488
     24 N           2.1667   41.8612   13.2312 N.pl3   1  UNL1       -0.2781
     25 H           2.6840   41.3761   13.9141 H       1  UNL1        0.1555
     26 C          -1.3562   45.3046   13.4637 C.3     1  UNL1        0.0524
     27 C          -0.6768   44.0181   13.7812 C.ar    1  UNL1        0.0633
     28 C           0.9442   42.4766   13.6493 C.ar    1  UNL1        0.1639
     29 C          -1.1929   43.0707   14.6606 C.ar    1  UNL1        0.0238
     30 C          -2.4722   43.1685   15.4162 C.3     1  UNL1        0.0395
     31 N           0.5146   43.6845   13.2188 N.ar    1  UNL1       -0.2286
     32 S          -0.1261   41.7730   14.7388 S.2     1  UNL1       -0.0561
@<TRIPOS>BOND
     1    26    27    1
     2    27    31   ar
     3    28    24    1
     4    28    32   ar
     5     1     7   ar
     6     2     3   ar
     7     4     6   ar
     8     5     4    1
     9     8     3    1
    10     8     9    1
    11     9    10    1
    12    10    11    1
    13    11    14    1
    14    12    14    1
    15    12     8    1
    16    13    16    1
    17    17    18    1
    18    19    20   ar
    19    21    23    1
    20    29    32   ar
    21    30    29    1
    22    24     1    1
    23    14    13   am
    24    23    22   ar
    25    23    18   ar
    26    28    31   ar
    27     1     2   ar
    28     3     6   ar
    29     4     7   ar
    30    13    15    2
    31    16    17    2
    32    18    19   ar
    33    20    22   ar
    34    29    27   ar
    35    24    25    1
@<TRIPOS>MOLECULE
MolPort-047-072-147 PubChem-132766983
 32 35 0 0 0
SMALL
GASTEIGER

@<TRIPOS>ATOM
      1 C          15.4838   41.9768    7.9623 C.ar    1  UNL1        0.1361
      2 C          14.2365   41.3555    7.9101 C.ar    1  UNL1        0.0492
      3 C          13.2394   41.9225    7.1166 C.ar    1  UNL1        0.0644
      4 C          14.7184   43.6533    6.4762 C.ar    1  UNL1        0.1406
      5 C          14.9803   44.8945    5.7024 C.3     1  UNL1        0.0737
      6 N          13.4983   43.0597    6.4151 N.ar    1  UNL1       -0.2348
      7 N          15.6997   43.1128    7.2445 N.ar    1  UNL1       -0.2159
      8 C          11.8968   41.2742    7.0470 C.3     1  UNL1        0.0603
      9 C          11.1289   41.7436    5.8082 C.3     1  UNL1        0.0094
     10 C           9.7086   41.1618    5.7224 C.3     1  UNL1        0.0220
     11 C           9.2944   40.3928    6.9782 C.3     1  UNL1        0.0937
     12 C          11.0925   41.5567    8.3186 C.3     1  UNL1        0.0996
     13 C           8.7715   41.3993    9.2484 C.2     1  UNL1        0.2492
     14 N           9.6959   41.1317    8.1758 N.am    1  UNL1       -0.2757
     15 O           9.2180   41.6285   10.4040 O.2     1  UNL1       -0.2699
     16 C           7.3082   41.4333    9.0656 C.2     1  UNL1        0.0595
     17 C           6.4457   41.6980   10.0415 C.2     1  UNL1        0.0234
     18 C           4.9938   41.7222    9.8141 C.ar    1  UNL1        0.0797
     19 C           4.0939   40.7219   10.1383 C.ar    1  UNL1        0.0412
     20 C           2.8693   41.2318    9.7215 C.ar    1  UNL1        0.1217
     21 C           4.9075   43.9873    8.7616 C.3     1  UNL1        0.1537
     22 N           3.0473   42.4576    9.1860 N.ar    1  UNL1       -0.1676
     23 N           4.3335   42.7433    9.2470 N.ar    1  UNL1       -0.2488
     24 N          16.5155   41.4047    8.7731 N.pl3   1  UNL1       -0.2781
     25 H          17.3836   41.8686    8.7921 H       1  UNL1        0.1555
     26 C          17.9404   37.2356   10.9890 C.3     1  UNL1        0.0524
     27 C          17.0005   38.3155   10.5791 C.ar    1  UNL1        0.0633
     28 C          16.3907   40.2147    9.5583 C.ar    1  UNL1        0.1639
     29 C          15.6579   38.3481   10.9445 C.ar    1  UNL1        0.0238
     30 C          14.9437   37.3449   11.7816 C.3     1  UNL1        0.0395
     31 N          17.4065   39.3571    9.8064 N.ar    1  UNL1       -0.2286
     32 S          14.9539   39.7235   10.2807 S.2     1  UNL1       -0.0561
@<TRIPOS>BOND
     1    26    27    1
     2    27    31   ar
     3    28    24    1
     4    28    32   ar
     5     1     7   ar
     6     2     3   ar
     7     4     6   ar
     8     5     4    1
     9     8     3    1
    10     8     9    1
    11     9    10    1
    12    10    11    1
    13    11    14    1
    14    12    14    1
    15    12     8    1
    16    13    16    1
    17    17    18    1
    18    19    20   ar
    19    21    23    1
    20    29    32   ar
    21    30    29    1
    22    24     1    1
    23    14    13   am
    24    23    22   ar
    25    23    18   ar
    26    28    31   ar
    27     1     2   ar
    28     3     6   ar
    29     4     7   ar
    30    13    15    2
    31    16    17    2
    32    18    19   ar
    33    20    22   ar
    34    29    27   ar
    35    24    25    1
@<TRIPOS>MOLECULE
MolPort-047-072-147 PubChem-132766983
 32 35 0 0 0
SMALL
GASTEIGER

@<TRIPOS>ATOM
      1 C          12.1803   42.3339    8.6934 C.ar    1  UNL1        0.1361
      2 C          12.9042   41.2464    9.1812 C.ar    1  UNL1        0.0492
      3 C          12.3956   40.5383   10.2698 C.ar    1  UNL1        0.0644
      4 C          10.5213   41.9786   10.3446 C.ar    1  UNL1        0.1406
      5 C           9.2341   42.3754   10.9719 C.3     1  UNL1        0.0737
      6 N          11.2149   40.9170   10.8310 N.ar    1  UNL1       -0.2348
      7 N          11.0037   42.6780    9.2847 N.ar    1  UNL1       -0.2159
      8 C          13.1548   39.3715   10.8082 C.3     1  UNL1        0.0603
      9 C          14.6613   39.5657   10.6145 C.3     1  UNL1        0.0094
     10 C          15.4907   38.3606   11.0869 C.3     1  UNL1        0.0220
     11 C          14.6347   37.1531   11.4732 C.3     1  UNL1        0.0937
     12 C          12.6897   38.0712   10.1472 C.3     1  UNL1        0.0996
     13 C          13.3350   35.6653    9.8804 C.2     1  UNL1        0.2492
     14 N          13.5744   36.9511   10.4851 N.am    1  UNL1       -0.2757
     15 O          12.1988   35.4133    9.3975 O.2     1  UNL1       -0.2699
     16 C          14.3645   34.6137    9.7810 C.2     1  UNL1        0.0595
     17 C          15.0642   34.3636    8.6791 C.2     1  UNL1        0.0234
     18 C          16.0823   33.3050    8.6250 C.ar    1  UNL1        0.0797
     19 C          17.4431   33.4620    8.8226 C.ar    1  UNL1        0.0412
     20 C          17.9500   32.1769    8.6649 C.ar    1  UNL1        0.1217
     21 C          14.5158   31.4286    8.1044 C.3     1  UNL1        0.1537
     22 N          16.9421   31.3225    8.3913 N.ar    1  UNL1       -0.1676
     23 N          15.8194   32.0143    8.3695 N.ar    1  UNL1       -0.2488
     24 N          12.6917   43.0688    7.5765 N.pl3   1  UNL1       -0.2781
     25 H          12.0384   43.5333    7.0049 H       1  UNL1        0.1555
     26 C          17.5684   42.4523    7.9762 C.3     1  UNL1        0.0524
     27 C          16.2940   42.9256    7.3684 C.ar    1  UNL1        0.0633
     28 C          14.0731   43.1849    7.2211 C.ar    1  UNL1        0.1639
     29 C          16.2295   43.6620    6.1891 C.ar    1  UNL1        0.0238
     30 C          17.3822   44.0945    5.3514 C.3     1  UNL1        0.0395
     31 N          15.0905   42.6610    7.9417 N.ar    1  UNL1       -0.2286
     32 S          14.6161   43.9940    5.8506 S.2     1  UNL1       -0.0561
@<TRIPOS>BOND
     1    26    27    1
     2    27    31   ar
     3    28    24    1
     4    28    32   ar
     5     1     7   ar
     6     2     3   ar
     7     4     6   ar
     8     5     4    1
     9     8     3    1
    10     8     9    1
    11     9    10    1
    12    10    11    1
    13    11    14    1
    14    12    14    1
    15    12     8    1
    16    13    16    1
    17    17    18    1
    18    19    20   ar
    19    21    23    1
    20    29    32   ar
    21    30    29    1
    22    24     1    1
    23    14    13   am
    24    23    22   ar
    25    23    18   ar
    26    28    31   ar
    27     1     2   ar
    28     3     6   ar
    29     4     7   ar
    30    13    15    2
    31    16    17    2
    32    18    19   ar
    33    20    22   ar
    34    29    27   ar
    35    24    25    1
@<TRIPOS>MOLECULE
MolPort-047-072-147 PubChem-132766983
 32 35 0 0 0
SMALL
GASTEIGER

@<TRIPOS>ATOM
      1 C          14.9815   39.7919    9.7980 C.ar    1  UNL1        0.1361
      2 C          13.8375   40.5862    9.7272 C.ar    1  UNL1        0.0492
      3 C          12.6347   40.0714   10.2103 C.ar    1  UNL1        0.0644
      4 C          13.7217   38.0550   10.7985 C.ar    1  UNL1        0.1406
      5 C          13.6608   36.6876   11.3768 C.3     1  UNL1        0.0737
      6 N          12.5989   38.8167   10.7364 N.ar    1  UNL1       -0.2348
      7 N          14.9007   38.5427   10.3321 N.ar    1  UNL1       -0.2159
      8 C          11.3981   40.9044   10.1435 C.3     1  UNL1        0.0603
      9 C          10.6123   40.8190   11.4549 C.3     1  UNL1        0.0094
     10 C           9.2900   41.6021   11.4182 C.3     1  UNL1        0.0220
     11 C           8.9468   42.1421   10.0287 C.3     1  UNL1        0.0937
     12 C          10.5222   40.4795    8.9619 C.3     1  UNL1        0.0996
     13 C           8.2171   40.7679    8.0240 C.2     1  UNL1        0.2492
     14 N           9.2034   41.1195    9.0140 N.am    1  UNL1       -0.2757
     15 O           8.5904   40.2407    6.9422 O.2     1  UNL1       -0.2699
     16 C           6.7699   40.9817    8.2124 C.2     1  UNL1        0.0595
     17 C           6.2319   41.4710    9.3248 C.2     1  UNL1        0.0234
     18 C           4.7826   41.6684    9.4690 C.ar    1  UNL1        0.0797
     19 C           3.8779   40.7636    9.9965 C.ar    1  UNL1        0.0412
     20 C           2.6584   41.4254    9.9063 C.ar    1  UNL1        0.1217
     21 C           4.7102   43.9706    8.4990 C.3     1  UNL1        0.1537
     22 N           2.8437   42.6444    9.3580 N.ar    1  UNL1       -0.1676
     23 N           4.1296   42.7802    9.0979 N.ar    1  UNL1       -0.2488
     24 N          16.2222   40.3089    9.3054 N.pl3   1  UNL1       -0.2781
     25 H          17.0366   39.7924    9.5037 H       1  UNL1        0.1555
     26 C          18.4890   44.3067    7.5161 C.3     1  UNL1        0.0524
     27 C          17.3742   43.3397    7.7156 C.ar    1  UNL1        0.0633
     28 C          16.3779   41.5138    8.5489 C.ar    1  UNL1        0.1639
     29 C          16.1258   43.4681    7.1138 C.ar    1  UNL1        0.0238
     30 C          15.6942   44.5569    6.1944 C.3     1  UNL1        0.0395
     31 N          17.5122   42.2494    8.5151 N.ar    1  UNL1       -0.2286
     32 S          15.1618   42.1773    7.5960 S.2     1  UNL1       -0.0561
@<TRIPOS>BOND
     1    26    27    1
     2    27    31   ar
     3    28    24    1
     4    28    32   ar
     5     1     7   ar
     6     2     3   ar
     7     4     6   ar
     8     5     4    1
     9     8     3    1
    10     8     9    1
    11     9    10    1
    12    10    11    1
    13    11    14    1
    14    12    14    1
    15    12     8    1
    16    13    16    1
    17    17    18    1
    18    19    20   ar
    19    21    23    1
    20    29    32   ar
    21    30    29    1
    22    24     1    1
    23    14    13   am
    24    23    22   ar
    25    23    18   ar
    26    28    31   ar
    27     1     2   ar
    28     3     6   ar
    29     4     7   ar
    30    13    15    2
    31    16    17    2
    32    18    19   ar
    33    20    22   ar
    34    29    27   ar
    35    24    25    1
