@<TRIPOS>MOLECULE
MolPort-004-903-011 27824740 CSSS03437743028 MCULE-8933295682 PubChem-35203428 ZINC000027824740 ZINC27824740
 25 27 0 0 0
SMALL
GASTEIGER

@<TRIPOS>ATOM
      1 C           9.0963   41.6136    9.6106 C.ar    1  UNL1        0.0476
      2 C           9.4308   41.4943   10.9768 C.ar    1  UNL1       -0.0086
      3 C           8.5669   42.0504   12.0567 C.3     1  UNL1        0.0323
      4 C          10.6435   40.9055   11.3435 C.ar    1  UNL1       -0.0060
      5 C          11.5350   40.4407   10.3739 C.ar    1  UNL1       -0.0030
      6 C          12.8125   39.8189   10.8262 C.3     1  UNL1        0.0324
      7 C          11.2209   40.5870    9.0095 C.ar    1  UNL1        0.1265
      8 C          10.0074   41.1791    8.6439 C.ar    1  UNL1        0.0345
      9 C           6.4622   44.0963    8.2503 C.3     1  UNL1        0.0949
     10 C           7.7024   43.6210    8.9162 C.2     1  UNL1        0.2266
     11 O           8.5652   44.4577    9.2929 O.2     1  UNL1       -0.2748
     12 N           7.8770   42.2232    9.1663 N.am    1  UNL1       -0.2841
     13 H           7.1008   41.6351    9.0222 H       1  UNL1        0.1548
     14 O          11.5581   39.5663    6.5499 O.2     1  UNL1       -0.1462
     15 O          13.1874   38.9492    8.2666 O.2     1  UNL1       -0.1462
     16 S          12.3280   40.0645    7.7411 S.O2    1  UNL1        0.1016
     17 C          14.9485   42.8150    7.0223 C.ar    1  UNL1        0.1237
     18 C          16.1892   43.4065    7.2367 C.ar    1  UNL1        0.0226
     19 C          17.0300   42.8006    8.1919 C.ar    1  UNL1        0.0017
     20 C          16.6129   41.6421    8.8908 C.ar    1  UNL1        0.0017
     21 C          15.3485   41.0715    8.6458 C.ar    1  UNL1        0.0224
     22 C          14.5499   41.7023    7.6952 C.ar    1  UNL1        0.1235
     23 N          13.3246   41.3934    7.2546 N.ar    1  UNL1       -0.1080
     24 N          12.9925   42.2970    6.3388 N.ar    1  UNL1       -0.0426
     25 N          13.9718   43.1864    6.1736 N.ar    1  UNL1       -0.1273
@<TRIPOS>BOND
     1     9    10    1
     2    10    12   am
     3     2     4   ar
     4     3     2    1
     5     5     7   ar
     6     6     5    1
     7     8     1   ar
     8    17    25   ar
     9    18    19   ar
    10    20    21   ar
    11    22    23   ar
    12    22    17   ar
    13    12     1    1
    14    23    24   ar
    15    16     7    1
    16    16    23    1
    17    10    11    2
    18     1     2   ar
    19     4     5   ar
    20     7     8   ar
    21    17    18   ar
    22    19    20   ar
    23    21    22   ar
    24    24    25   ar
    25    16    14    2
    26    16    15    2
    27    12    13    1
@<TRIPOS>MOLECULE
MolPort-004-903-011 27824740 CSSS03437743028 MCULE-8933295682 PubChem-35203428 ZINC000027824740 ZINC27824740
 25 27 0 0 0
SMALL
GASTEIGER

@<TRIPOS>ATOM
      1 C          16.4458   41.4082    8.8071 C.ar    1  UNL1        0.0476
      2 C          16.7466   42.3910    7.8394 C.ar    1  UNL1       -0.0086
      3 C          18.1185   42.9503    7.6765 C.3     1  UNL1        0.0323
      4 C          15.7227   42.9223    7.0513 C.ar    1  UNL1       -0.0060
      5 C          14.4016   42.4997    7.2147 C.ar    1  UNL1       -0.0030
      6 C          13.3524   43.1009    6.3424 C.3     1  UNL1        0.0324
      7 C          14.0915   41.5439    8.2007 C.ar    1  UNL1        0.1265
      8 C          15.1173   41.0148    8.9908 C.ar    1  UNL1        0.0345
      9 C          18.8784   38.9716   10.5671 C.3     1  UNL1        0.0949
     10 C          17.6740   39.4333    9.8298 C.2     1  UNL1        0.2266
     11 O          16.8452   38.5871    9.4016 O.2     1  UNL1       -0.2748
     12 N          17.4457   40.8354    9.6602 N.am    1  UNL1       -0.2841
     13 H          18.0189   41.4541   10.1679 H       1  UNL1        0.1548
     14 O          11.6352   41.0920    7.2170 O.2     1  UNL1       -0.1462
     15 O          11.8036   41.8965    9.5207 O.2     1  UNL1       -0.1462
     16 S          12.4362   41.0087    8.4863 S.O2    1  UNL1        0.1016
     17 C          12.8044   37.5394   10.1529 C.ar    1  UNL1        0.1237
     18 C          13.3332   36.7039   11.1314 C.ar    1  UNL1        0.0226
     19 C          14.2170   37.2875   12.0612 C.ar    1  UNL1        0.0017
     20 C          14.5391   38.6643   11.9867 C.ar    1  UNL1        0.0017
     21 C          13.9827   39.4788   10.9811 C.ar    1  UNL1        0.0224
     22 C          13.1156   38.8615   10.0831 C.ar    1  UNL1        0.1235
     23 N          12.4425   39.3703    9.0443 N.ar    1  UNL1       -0.1080
     24 N          11.7428   38.3798    8.5012 N.ar    1  UNL1       -0.0426
     25 N          11.9450   37.2393    9.1612 N.ar    1  UNL1       -0.1273
@<TRIPOS>BOND
     1     9    10    1
     2    10    12   am
     3     2     4   ar
     4     3     2    1
     5     5     7   ar
     6     6     5    1
     7     8     1   ar
     8    17    25   ar
     9    18    19   ar
    10    20    21   ar
    11    22    23   ar
    12    22    17   ar
    13    12     1    1
    14    23    24   ar
    15    16     7    1
    16    16    23    1
    17    10    11    2
    18     1     2   ar
    19     4     5   ar
    20     7     8   ar
    21    17    18   ar
    22    19    20   ar
    23    21    22   ar
    24    24    25   ar
    25    16    14    2
    26    16    15    2
    27    12    13    1
@<TRIPOS>MOLECULE
MolPort-004-903-011 27824740 CSSS03437743028 MCULE-8933295682 PubChem-35203428 ZINC000027824740 ZINC27824740
 25 27 0 0 0
SMALL
GASTEIGER

@<TRIPOS>ATOM
      1 C          13.2578   39.7156    9.6648 C.ar    1  UNL1        0.0476
      2 C          12.8089   38.5757    8.9635 C.ar    1  UNL1       -0.0086
      3 C          13.6992   37.4129    8.6864 C.3     1  UNL1        0.0323
      4 C          11.5139   38.5509    8.4397 C.ar    1  UNL1       -0.0060
      5 C          10.6592   39.6449    8.5933 C.ar    1  UNL1       -0.0030
      6 C           9.2876   39.5588    8.0150 C.3     1  UNL1        0.0324
      7 C          11.1132   40.7967    9.2632 C.ar    1  UNL1        0.1265
      8 C          12.4109   40.8210    9.7848 C.ar    1  UNL1        0.0345
      9 C          16.5091   39.0924   11.6629 C.3     1  UNL1        0.0949
     10 C          15.0609   39.0654   11.3323 C.2     1  UNL1        0.2266
     11 O          14.2673   38.4215   12.0685 O.2     1  UNL1       -0.2748
     12 N          14.5796   39.8129   10.2113 N.am    1  UNL1       -0.2841
     13 H          15.2038   40.4420    9.7826 H       1  UNL1        0.1548
     14 O           9.5550   42.6529    8.1093 O.2     1  UNL1       -0.1462
     15 O          10.9205   43.3455   10.0167 O.2     1  UNL1       -0.1462
     16 S          10.0972   42.2259    9.4447 S.O2    1  UNL1        0.1016
     17 C           6.8119   41.4613   11.3344 C.ar    1  UNL1        0.1237
     18 C           5.4330   41.2793   11.3635 C.ar    1  UNL1        0.0226
     19 C           4.7422   41.4305   10.1443 C.ar    1  UNL1        0.0017
     20 C           5.4382   41.7524    8.9542 C.ar    1  UNL1        0.0017
     21 C           6.8358   41.9286    8.9645 C.ar    1  UNL1        0.0224
     22 C           7.4782   41.7709   10.1899 C.ar    1  UNL1        0.1235
     23 N           8.7754   41.8696   10.5038 N.ar    1  UNL1       -0.1080
     24 N           8.8887   41.6255   11.8050 N.ar    1  UNL1       -0.0426
     25 N           7.6966   41.3711   12.3450 N.ar    1  UNL1       -0.1273
@<TRIPOS>BOND
     1     9    10    1
     2    10    12   am
     3     2     4   ar
     4     3     2    1
     5     5     7   ar
     6     6     5    1
     7     8     1   ar
     8    17    25   ar
     9    18    19   ar
    10    20    21   ar
    11    22    23   ar
    12    22    17   ar
    13    12     1    1
    14    23    24   ar
    15    16     7    1
    16    16    23    1
    17    10    11    2
    18     1     2   ar
    19     4     5   ar
    20     7     8   ar
    21    17    18   ar
    22    19    20   ar
    23    21    22   ar
    24    24    25   ar
    25    16    14    2
    26    16    15    2
    27    12    13    1
@<TRIPOS>MOLECULE
MolPort-004-903-011 27824740 CSSS03437743028 MCULE-8933295682 PubChem-35203428 ZINC000027824740 ZINC27824740
 25 27 0 0 0
SMALL
GASTEIGER

@<TRIPOS>ATOM
      1 C          14.4117   37.2388    9.1626 C.ar    1  UNL1        0.0476
      2 C          13.2478   36.5548    9.5748 C.ar    1  UNL1       -0.0086
      3 C          13.2742   35.1244    9.9929 C.3     1  UNL1        0.0323
      4 C          12.0104   37.2016    9.5240 C.ar    1  UNL1       -0.0060
      5 C          11.9086   38.5154    9.0613 C.ar    1  UNL1       -0.0030
      6 C          10.5616   39.1541    9.0329 C.3     1  UNL1        0.0324
      7 C          13.0616   39.1907    8.6182 C.ar    1  UNL1        0.1265
      8 C          14.2994   38.5409    8.6673 C.ar    1  UNL1        0.0345
      9 C          18.1173   36.3940    9.8749 C.3     1  UNL1        0.0949
     10 C          16.8882   37.2160    9.7291 C.2     1  UNL1        0.2266
     11 O          16.9118   38.4323   10.0553 O.2     1  UNL1       -0.2748
     12 N          15.7087   36.6279    9.1727 N.am    1  UNL1       -0.2841
     13 H          15.7942   35.7356    8.7656 H       1  UNL1        0.1548
     14 O          12.0865   41.6827    8.8285 O.2     1  UNL1       -0.1462
     15 O          12.4405   40.7898    6.5790 O.2     1  UNL1       -0.1462
     16 S          12.9877   40.8316    7.9781 S.O2    1  UNL1        0.1016
     17 C          16.3115   42.7662    7.5796 C.ar    1  UNL1        0.1237
     18 C          17.0705   43.7889    7.0198 C.ar    1  UNL1        0.0226
     19 C          16.4245   44.6300    6.0915 C.ar    1  UNL1        0.0017
     20 C          15.0636   44.4275    5.7575 C.ar    1  UNL1        0.0017
     21 C          14.3275   43.3807    6.3461 C.ar    1  UNL1        0.0224
     22 C          15.0044   42.5735    7.2568 C.ar    1  UNL1        0.1235
     23 N          14.5740   41.5240    7.9669 N.ar    1  UNL1       -0.1080
     24 N          15.5958   41.0945    8.6997 N.ar    1  UNL1       -0.0426
     25 N          16.6804   41.8389    8.4829 N.ar    1  UNL1       -0.1273
@<TRIPOS>BOND
     1     9    10    1
     2    10    12   am
     3     2     4   ar
     4     3     2    1
     5     5     7   ar
     6     6     5    1
     7     8     1   ar
     8    17    25   ar
     9    18    19   ar
    10    20    21   ar
    11    22    23   ar
    12    22    17   ar
    13    12     1    1
    14    23    24   ar
    15    16     7    1
    16    16    23    1
    17    10    11    2
    18     1     2   ar
    19     4     5   ar
    20     7     8   ar
    21    17    18   ar
    22    19    20   ar
    23    21    22   ar
    24    24    25   ar
    25    16    14    2
    26    16    15    2
    27    12    13    1
@<TRIPOS>MOLECULE
MolPort-004-903-011 27824740 CSSS03437743028 MCULE-8933295682 PubChem-35203428 ZINC000027824740 ZINC27824740
 25 27 0 0 0
SMALL
GASTEIGER

@<TRIPOS>ATOM
      1 C           8.1968   40.6549    8.0794 C.ar    1  UNL1        0.0476
      2 C           7.9114   40.1846    6.7794 C.ar    1  UNL1       -0.0086
      3 C           6.5154   39.9989    6.2915 C.3     1  UNL1        0.0323
      4 C           8.9582   39.8049    5.9355 C.ar    1  UNL1       -0.0060
      5 C          10.2852   39.8762    6.3653 C.ar    1  UNL1       -0.0030
      6 C          11.3596   39.4601    5.4190 C.3     1  UNL1        0.0324
      7 C          10.5731   40.3133    7.6721 C.ar    1  UNL1        0.1265
      8 C           9.5238   40.6906    8.5168 C.ar    1  UNL1        0.0345
      9 C           5.2745   42.4786    9.8362 C.3     1  UNL1        0.0949
     10 C           6.4636   42.2871    8.9663 C.2     1  UNL1        0.2266
     11 O           6.8630   43.2368    8.2417 O.2     1  UNL1       -0.2748
     12 N           7.1695   41.0432    9.0011 N.am    1  UNL1       -0.2841
     13 H           6.9317   40.4052    9.7121 H       1  UNL1        0.1548
     14 O          12.9132   39.0593    8.0679 O.2     1  UNL1       -0.1462
     15 O          12.1896   40.6701    9.7604 O.2     1  UNL1       -0.1462
     16 S          12.2241   40.3773    8.2868 S.O2    1  UNL1        0.1016
     17 C          14.6489   42.9695    6.7538 C.ar    1  UNL1        0.1237
     18 C          15.9063   43.5559    6.6526 C.ar    1  UNL1        0.0226
     19 C          16.9180   43.0485    7.4925 C.ar    1  UNL1        0.0017
     20 C          16.6472   41.9886    8.3914 C.ar    1  UNL1        0.0017
     21 C          15.3606   41.4199    8.4648 C.ar    1  UNL1        0.0224
     22 C          14.3911   41.9517    7.6184 C.ar    1  UNL1        0.1235
     23 N          13.1042   41.6191    7.4626 N.ar    1  UNL1       -0.1080
     24 N          12.5985   42.4161    6.5275 N.ar    1  UNL1       -0.0426
     25 N          13.5251   43.2594    6.0718 N.ar    1  UNL1       -0.1273
@<TRIPOS>BOND
     1     9    10    1
     2    10    12   am
     3     2     4   ar
     4     3     2    1
     5     5     7   ar
     6     6     5    1
     7     8     1   ar
     8    17    25   ar
     9    18    19   ar
    10    20    21   ar
    11    22    23   ar
    12    22    17   ar
    13    12     1    1
    14    23    24   ar
    15    16     7    1
    16    16    23    1
    17    10    11    2
    18     1     2   ar
    19     4     5   ar
    20     7     8   ar
    21    17    18   ar
    22    19    20   ar
    23    21    22   ar
    24    24    25   ar
    25    16    14    2
    26    16    15    2
    27    12    13    1
@<TRIPOS>MOLECULE
MolPort-004-903-011 27824740 CSSS03437743028 MCULE-8933295682 PubChem-35203428 ZINC000027824740 ZINC27824740
 25 27 0 0 0
SMALL
GASTEIGER

@<TRIPOS>ATOM
      1 C           8.6971   40.4068    6.9181 C.ar    1  UNL1        0.0476
      2 C           9.5223   40.0922    8.0193 C.ar    1  UNL1       -0.0086
      3 C          10.2941   38.8193    8.0944 C.3     1  UNL1        0.0323
      4 C           9.5705   40.9553    9.1169 C.ar    1  UNL1       -0.0060
      5 C           8.8047   42.1231    9.1427 C.ar    1  UNL1       -0.0030
      6 C           8.9002   43.0065   10.3400 C.3     1  UNL1        0.0324
      7 C           7.9554   42.4248    8.0613 C.ar    1  UNL1        0.1265
      8 C           7.9062   41.5582    6.9643 C.ar    1  UNL1        0.0345
      9 C           9.3402   38.5783    3.5722 C.3     1  UNL1        0.0949
     10 C           9.4022   39.6524    4.5969 C.2     1  UNL1        0.2266
     11 O          10.1368   40.6565    4.4009 O.2     1  UNL1       -0.2748
     12 N           8.5879   39.5561    5.7692 N.am    1  UNL1       -0.2841
     13 H           7.9001   38.8520    5.7886 H       1  UNL1        0.1548
     14 O           6.7916   44.3987    6.6633 O.2     1  UNL1       -0.1462
     15 O           7.5530   44.9115    8.9304 O.2     1  UNL1       -0.1462
     16 S           6.9289   43.8580    8.0592 S.O2    1  UNL1        0.1016
     17 C           3.7036   42.5877    9.7716 C.ar    1  UNL1        0.1237
     18 C           3.0469   41.7791   10.6937 C.ar    1  UNL1        0.0226
     19 C           3.8458   40.9169   11.4714 C.ar    1  UNL1        0.0017
     20 C           5.2518   40.8901   11.3073 C.ar    1  UNL1        0.0017
     21 C           5.8809   41.7246   10.3628 C.ar    1  UNL1        0.0224
     22 C           5.0543   42.5598    9.6155 C.ar    1  UNL1        0.1235
     23 N           5.3594   43.4507    8.6646 N.ar    1  UNL1       -0.1080
     24 N           4.2212   44.0021    8.2574 N.ar    1  UNL1       -0.0426
     25 N           3.1833   43.4911    8.9200 N.ar    1  UNL1       -0.1273
@<TRIPOS>BOND
     1     9    10    1
     2    10    12   am
     3     2     4   ar
     4     3     2    1
     5     5     7   ar
     6     6     5    1
     7     8     1   ar
     8    17    25   ar
     9    18    19   ar
    10    20    21   ar
    11    22    23   ar
    12    22    17   ar
    13    12     1    1
    14    23    24   ar
    15    16     7    1
    16    16    23    1
    17    10    11    2
    18     1     2   ar
    19     4     5   ar
    20     7     8   ar
    21    17    18   ar
    22    19    20   ar
    23    21    22   ar
    24    24    25   ar
    25    16    14    2
    26    16    15    2
    27    12    13    1
@<TRIPOS>MOLECULE
MolPort-004-903-011 27824740 CSSS03437743028 MCULE-8933295682 PubChem-35203428 ZINC000027824740 ZINC27824740
 25 27 0 0 0
SMALL
GASTEIGER

@<TRIPOS>ATOM
      1 C          16.2287   41.0570    9.1018 C.ar    1  UNL1        0.0476
      2 C          16.5019   42.1159    8.2092 C.ar    1  UNL1       -0.0086
      3 C          17.8076   42.8348    8.2069 C.3     1  UNL1        0.0323
      4 C          15.5018   42.5675    7.3445 C.ar    1  UNL1       -0.0060
      5 C          14.2302   41.9900    7.3579 C.ar    1  UNL1       -0.0030
      6 C          13.2049   42.5123    6.4098 C.3     1  UNL1        0.0324
      7 C          13.9429   40.9559    8.2689 C.ar    1  UNL1        0.1265
      8 C          14.9445   40.5066    9.1359 C.ar    1  UNL1        0.0345
      9 C          18.8576   38.8783   10.9169 C.3     1  UNL1        0.0949
     10 C          17.6918   39.2138   10.0590 C.2     1  UNL1        0.2266
     11 O          17.1191   38.3026    9.4048 O.2     1  UNL1       -0.2748
     12 N          17.2038   40.5582   10.0270 N.am    1  UNL1       -0.2841
     13 H          17.5651   41.1891   10.6910 H       1  UNL1        0.1548
     14 O          12.3465   39.0925    9.3573 O.2     1  UNL1       -0.1462
     15 O          11.9657   39.6835    7.0146 O.2     1  UNL1       -0.1462
     16 S          12.3427   40.2225    8.3658 S.O2    1  UNL1        0.1016
     17 C           9.3632   42.5214    9.2525 C.ar    1  UNL1        0.1237
     18 C           8.0043   42.8189    9.2427 C.ar    1  UNL1        0.0226
     19 C           7.1521   41.8956    8.6042 C.ar    1  UNL1        0.0017
     20 C           7.6747   40.7234    8.0063 C.ar    1  UNL1        0.0017
     21 C           9.0574   40.4563    8.0371 C.ar    1  UNL1        0.0224
     22 C           9.8628   41.3949    8.6770 C.ar    1  UNL1        0.1235
     23 N          11.1875   41.4101    8.8666 N.ar    1  UNL1       -0.1080
     24 N          11.4796   42.5179    9.5397 N.ar    1  UNL1       -0.0426
     25 N          10.3770   43.2238    9.7918 N.ar    1  UNL1       -0.1273
@<TRIPOS>BOND
     1     9    10    1
     2    10    12   am
     3     2     4   ar
     4     3     2    1
     5     5     7   ar
     6     6     5    1
     7     8     1   ar
     8    17    25   ar
     9    18    19   ar
    10    20    21   ar
    11    22    23   ar
    12    22    17   ar
    13    12     1    1
    14    23    24   ar
    15    16     7    1
    16    16    23    1
    17    10    11    2
    18     1     2   ar
    19     4     5   ar
    20     7     8   ar
    21    17    18   ar
    22    19    20   ar
    23    21    22   ar
    24    24    25   ar
    25    16    14    2
    26    16    15    2
    27    12    13    1
@<TRIPOS>MOLECULE
MolPort-004-903-011 27824740 CSSS03437743028 MCULE-8933295682 PubChem-35203428 ZINC000027824740 ZINC27824740
 25 27 0 0 0
SMALL
GASTEIGER

@<TRIPOS>ATOM
      1 C          16.0924   41.1796    8.8315 C.ar    1  UNL1        0.0476
      2 C          16.2510   42.1971    7.8661 C.ar    1  UNL1       -0.0086
      3 C          17.5781   42.8050    7.5645 C.3     1  UNL1        0.0323
      4 C          15.1281   42.7158    7.2164 C.ar    1  UNL1       -0.0060
      5 C          13.8475   42.2461    7.5167 C.ar    1  UNL1       -0.0030
      6 C          12.6878   42.8359    6.7885 C.3     1  UNL1        0.0324
      7 C          13.6810   41.2548    8.5022 C.ar    1  UNL1        0.1265
      8 C          14.8060   40.7384    9.1537 C.ar    1  UNL1        0.0345
      9 C          18.3838   38.8547   10.9043 C.3     1  UNL1        0.0949
     10 C          17.1294   39.4684   10.3970 C.2     1  UNL1        0.2266
     11 O          16.0178   38.9981   10.7568 O.2     1  UNL1       -0.2748
     12 N          17.2001   40.6171    9.5471 N.am    1  UNL1       -0.2841
     13 H          18.0762   41.0546    9.4460 H       1  UNL1        0.1548
     14 O          11.3089   41.7355    9.6630 O.2     1  UNL1       -0.1462
     15 O          12.2455   39.4871    9.8864 O.2     1  UNL1       -0.1462
     16 S          12.0860   40.6586    8.9587 S.O2    1  UNL1        0.1016
     17 C           9.6738   39.7404    6.0799 C.ar    1  UNL1        0.1237
     18 C           8.3949   39.6452    5.5408 C.ar    1  UNL1        0.0226
     19 C           7.3233   40.0510    6.3614 C.ar    1  UNL1        0.0017
     20 C           7.5583   40.5319    7.6722 C.ar    1  UNL1        0.0017
     21 C           8.8684   40.6142    8.1831 C.ar    1  UNL1        0.0224
     22 C           9.8970   40.2023    7.3395 C.ar    1  UNL1        0.1235
     23 N          11.2196   40.1710    7.5419 N.ar    1  UNL1       -0.1080
     24 N          11.7800   39.7020    6.4321 N.ar    1  UNL1       -0.0426
     25 N          10.8540   39.4271    5.5132 N.ar    1  UNL1       -0.1273
@<TRIPOS>BOND
     1     9    10    1
     2    10    12   am
     3     2     4   ar
     4     3     2    1
     5     5     7   ar
     6     6     5    1
     7     8     1   ar
     8    17    25   ar
     9    18    19   ar
    10    20    21   ar
    11    22    23   ar
    12    22    17   ar
    13    12     1    1
    14    23    24   ar
    15    16     7    1
    16    16    23    1
    17    10    11    2
    18     1     2   ar
    19     4     5   ar
    20     7     8   ar
    21    17    18   ar
    22    19    20   ar
    23    21    22   ar
    24    24    25   ar
    25    16    14    2
    26    16    15    2
    27    12    13    1
@<TRIPOS>MOLECULE
MolPort-004-903-011 27824740 CSSS03437743028 MCULE-8933295682 PubChem-35203428 ZINC000027824740 ZINC27824740
 25 27 0 0 0
SMALL
GASTEIGER

@<TRIPOS>ATOM
      1 C          15.6354   40.9620    8.9297 C.ar    1  UNL1        0.0476
      2 C          15.8268   39.8998    9.8394 C.ar    1  UNL1       -0.0086
      3 C          17.1714   39.5500   10.3793 C.3     1  UNL1        0.0323
      4 C          14.7445   39.0924   10.1983 C.ar    1  UNL1       -0.0060
      5 C          13.4752   39.3174    9.6607 C.ar    1  UNL1       -0.0030
      6 C          12.3584   38.4246   10.0837 C.3     1  UNL1        0.0324
      7 C          13.2860   40.3547    8.7280 C.ar    1  UNL1        0.1265
      8 C          14.3712   41.1605    8.3678 C.ar    1  UNL1        0.0345
      9 C          17.7068   43.8383    7.3842 C.3     1  UNL1        0.0949
     10 C          16.5769   42.8920    7.5720 C.2     1  UNL1        0.2266
     11 O          15.5359   43.0210    6.8748 O.2     1  UNL1       -0.2748
     12 N          16.7062   41.8161    8.5061 N.am    1  UNL1       -0.2841
     13 H          17.5986   41.6496    8.8872 H       1  UNL1        0.1548
     14 O          11.1936   39.3962    7.3467 O.2     1  UNL1       -0.1462
     15 O          11.8744   41.7056    6.9159 O.2     1  UNL1       -0.1462
     16 S          11.7186   40.6549    7.9790 S.O2    1  UNL1        0.1016
     17 C           8.7951   41.7148   10.2765 C.ar    1  UNL1        0.1237
     18 C           7.4369   41.8774   10.5294 C.ar    1  UNL1        0.0226
     19 C           6.5468   41.5181    9.4973 C.ar    1  UNL1        0.0017
     20 C           7.0326   41.0153    8.2661 C.ar    1  UNL1        0.0017
     21 C           8.4160   40.8643    8.0475 C.ar    1  UNL1        0.0224
     22 C           9.2594   41.2320    9.0929 C.ar    1  UNL1        0.1235
     23 N          10.5945   41.1964    9.1785 N.ar    1  UNL1       -0.1080
     24 N          10.9271   41.6463   10.3837 N.ar    1  UNL1       -0.0426
     25 N           9.8408   41.9743   11.0836 N.ar    1  UNL1       -0.1273
@<TRIPOS>BOND
     1     9    10    1
     2    10    12   am
     3     2     4   ar
     4     3     2    1
     5     5     7   ar
     6     6     5    1
     7     8     1   ar
     8    17    25   ar
     9    18    19   ar
    10    20    21   ar
    11    22    23   ar
    12    22    17   ar
    13    12     1    1
    14    23    24   ar
    15    16     7    1
    16    16    23    1
    17    10    11    2
    18     1     2   ar
    19     4     5   ar
    20     7     8   ar
    21    17    18   ar
    22    19    20   ar
    23    21    22   ar
    24    24    25   ar
    25    16    14    2
    26    16    15    2
    27    12    13    1
@<TRIPOS>MOLECULE
MolPort-004-903-011 27824740 CSSS03437743028 MCULE-8933295682 PubChem-35203428 ZINC000027824740 ZINC27824740
 25 27 0 0 0
SMALL
GASTEIGER

@<TRIPOS>ATOM
      1 C          14.2733   41.6330    7.8351 C.ar    1  UNL1        0.0476
      2 C          14.5356   40.7913    8.9375 C.ar    1  UNL1       -0.0086
      3 C          15.9138   40.5805    9.4646 C.3     1  UNL1        0.0323
      4 C          13.4922   40.0662    9.5184 C.ar    1  UNL1       -0.0060
      5 C          12.1921   40.1564    9.0159 C.ar    1  UNL1       -0.0030
      6 C          11.1195   39.3611    9.6792 C.3     1  UNL1        0.0324
      7 C          11.9314   40.9689    7.8962 C.ar    1  UNL1        0.1265
      8 C          12.9777   41.6922    7.3142 C.ar    1  UNL1        0.0345
      9 C          16.3213   44.4635    6.1781 C.3     1  UNL1        0.0949
     10 C          15.1303   43.6984    6.6293 C.2     1  UNL1        0.2266
     11 O          13.9812   44.1918    6.4791 O.2     1  UNL1       -0.2748
     12 N          15.3009   42.3898    7.1819 N.am    1  UNL1       -0.2841
     13 H          16.1919   41.9776    7.1080 H       1  UNL1        0.1548
     14 O           9.6288   39.7511    7.2481 O.2     1  UNL1       -0.1462
     15 O          10.4450   41.5040    5.7501 O.2     1  UNL1       -0.1462
     16 S          10.3212   41.0840    7.1878 S.O2    1  UNL1        0.1016
     17 C           7.8509   43.6490    8.6936 C.ar    1  UNL1        0.1237
     18 C           6.6789   44.3960    8.6356 C.ar    1  UNL1        0.0226
     19 C           5.8832   44.2488    7.4816 C.ar    1  UNL1        0.0017
     20 C           6.2758   43.3743    6.4396 C.ar    1  UNL1        0.0017
     21 C           7.4702   42.6337    6.5350 C.ar    1  UNL1        0.0224
     22 C           8.2262   42.8099    7.6912 C.ar    1  UNL1        0.1235
     23 N           9.3834   42.2481    8.0602 N.ar    1  UNL1       -0.1080
     24 N           9.6983   42.7361    9.2553 N.ar    1  UNL1       -0.0426
     25 N           8.7742   43.6020    9.6721 N.ar    1  UNL1       -0.1273
@<TRIPOS>BOND
     1     9    10    1
     2    10    12   am
     3     2     4   ar
     4     3     2    1
     5     5     7   ar
     6     6     5    1
     7     8     1   ar
     8    17    25   ar
     9    18    19   ar
    10    20    21   ar
    11    22    23   ar
    12    22    17   ar
    13    12     1    1
    14    23    24   ar
    15    16     7    1
    16    16    23    1
    17    10    11    2
    18     1     2   ar
    19     4     5   ar
    20     7     8   ar
    21    17    18   ar
    22    19    20   ar
    23    21    22   ar
    24    24    25   ar
    25    16    14    2
    26    16    15    2
    27    12    13    1
