@<TRIPOS>MOLECULE
MolPort-002-455-712 568486 CSC026737907 CSSS00026737907 ChemDiv-D039-0036 MCULE-3172344502 PubChem-959504 Z57394225 ZINC000000568486 ZINC00568486
 27 28 0 0 0
SMALL
GASTEIGER

@<TRIPOS>ATOM
      1 C          13.2433   42.0320    6.5451 C.2     1  UNL1        0.3093
      2 O          13.5187   40.9061    7.0418 O.2     1  UNL1       -0.2521
      3 N          12.0487   42.2186    5.7800 N.am    1  UNL1       -0.2551
      4 N          14.0970   43.1555    6.7829 N.am    1  UNL1       -0.2656
      5 H          11.8608   43.1248    5.4443 H       1  UNL1        0.1578
      6 H          13.7377   44.0478    6.5734 H       1  UNL1        0.1565
      7 C           9.4611   39.7247    5.6625 C.ar    1  UNL1        0.0857
      8 C          10.0141   39.6908    4.3877 C.ar    1  UNL1        0.0408
      9 C           9.5888   38.8035    3.2690 C.3     1  UNL1        0.0500
     10 C          11.1052   41.1878    5.4651 C.ar    1  UNL1        0.1085
     11 C          10.1711   40.6930    6.3491 C.ar    1  UNL1        0.0153
     12 C           9.9820   41.1304    7.7624 C.3     1  UNL1        0.0342
     13 N          11.0178   40.5830    4.2632 N.ar    1  UNL1       -0.3451
     14 H          11.5686   40.7556    3.4657 H       1  UNL1        0.1668
     15 C           8.3491   38.9026    6.1818 C.2     1  UNL1        0.3421
     16 O           8.5918   37.8709    6.8656 O.2     1  UNL1       -0.2449
     17 O           7.0288   39.2709    5.9149 O.3     1  UNL1       -0.4454
     18 C           6.6061   41.6160    6.1723 C.3     1  UNL1        0.0513
     19 C           6.3389   40.2251    6.7082 C.3     1  UNL1        0.2089
     20 C          15.4321   43.0894    7.3007 C.ar    1  UNL1        0.0859
     21 C          15.7524   42.0424    8.1721 C.ar    1  UNL1        0.0178
     22 C          17.0343   41.9353    8.7151 C.ar    1  UNL1        0.0015
     23 C          18.0061   42.8855    8.4007 C.ar    1  UNL1        0.0032
     24 C          17.6908   43.9515    7.5560 C.ar    1  UNL1        0.0382
     25 C          16.4021   44.0742    7.0089 C.ar    1  UNL1        0.1521
     26 C          14.8503   45.2585    5.4823 C.3     1  UNL1        0.2525
     27 O          16.0678   45.1744    6.2107 O.3     1  UNL1       -0.4702
@<TRIPOS>BOND
     1    18    19    1
     2    19    17    1
     3    15    17    1
     4    15     7    1
     5     8    13   ar
     6     9     8    1
     7    10     3    1
     8     1     4   am
     9    21    22   ar
    10    23    24   ar
    11    25    27    1
    12    25    20   ar
    13    26    27    1
    14    11     7   ar
    15    12    11    1
    16    13    10   ar
    17     3     1   am
    18     4    20    1
    19    15    16    2
    20     7     8   ar
    21    10    11   ar
    22     1     2    2
    23    20    21   ar
    24    22    23   ar
    25    24    25   ar
    26    13    14    1
    27     3     5    1
    28     4     6    1
@<TRIPOS>MOLECULE
MolPort-002-455-712 568486 CSC026737907 CSSS00026737907 ChemDiv-D039-0036 MCULE-3172344502 PubChem-959504 Z57394225 ZINC000000568486 ZINC00568486
 27 28 0 0 0
SMALL
GASTEIGER

@<TRIPOS>ATOM
      1 C          12.6707   42.1987    7.3277 C.2     1  UNL1        0.3093
      2 O          12.5129   43.3625    7.7868 O.2     1  UNL1       -0.2521
      3 N          11.5419   41.3600    7.0636 N.am    1  UNL1       -0.2551
      4 N          13.9811   41.7165    7.0147 N.am    1  UNL1       -0.2656
      5 H          11.7158   40.4738    6.6718 H       1  UNL1        0.1578
      6 H          14.0432   40.9068    6.4581 H       1  UNL1        0.1565
      7 C           8.2659   42.0283    8.3865 C.ar    1  UNL1        0.0857
      8 C           8.1693   42.4054    7.0522 C.ar    1  UNL1        0.0408
      9 C           6.9587   42.9558    6.3805 C.3     1  UNL1        0.0500
     10 C          10.1782   41.7113    7.3256 C.ar    1  UNL1        0.1085
     11 C           9.5647   41.5826    8.5529 C.ar    1  UNL1        0.0153
     12 C          10.1965   41.0625    9.7998 C.3     1  UNL1        0.0342
     13 N           9.3348   42.2137    6.4014 N.ar    1  UNL1       -0.3451
     14 H           9.5283   42.4006    5.4544 H       1  UNL1        0.1668
     15 C           7.2084   42.0881    9.4163 C.2     1  UNL1        0.3421
     16 O           7.5162   42.0778   10.6394 O.2     1  UNL1       -0.2449
     17 O           5.8676   42.1570    9.0324 O.3     1  UNL1       -0.4454
     18 C           4.3084   40.8586   10.3082 C.3     1  UNL1        0.0513
     19 C           5.0374   41.0060    8.9890 C.3     1  UNL1        0.2089
     20 C          15.2110   42.3146    7.4442 C.ar    1  UNL1        0.0859
     21 C          15.6267   43.4947    6.8174 C.ar    1  UNL1        0.0178
     22 C          16.8218   44.1145    7.1881 C.ar    1  UNL1        0.0015
     23 C          17.6205   43.5499    8.1829 C.ar    1  UNL1        0.0032
     24 C          17.2316   42.3570    8.7952 C.ar    1  UNL1        0.0382
     25 C          16.0347   41.7198    8.4258 C.ar    1  UNL1        0.1521
     26 C          16.4589   39.8409    9.9849 C.3     1  UNL1        0.2525
     27 O          15.6739   40.4935    8.9960 O.3     1  UNL1       -0.4702
@<TRIPOS>BOND
     1    18    19    1
     2    19    17    1
     3    15    17    1
     4    15     7    1
     5     8    13   ar
     6     9     8    1
     7    10     3    1
     8     1     4   am
     9    21    22   ar
    10    23    24   ar
    11    25    27    1
    12    25    20   ar
    13    26    27    1
    14    11     7   ar
    15    12    11    1
    16    13    10   ar
    17     3     1   am
    18     4    20    1
    19    15    16    2
    20     7     8   ar
    21    10    11   ar
    22     1     2    2
    23    20    21   ar
    24    22    23   ar
    25    24    25   ar
    26    13    14    1
    27     3     5    1
    28     4     6    1
@<TRIPOS>MOLECULE
MolPort-002-455-712 568486 CSC026737907 CSSS00026737907 ChemDiv-D039-0036 MCULE-3172344502 PubChem-959504 Z57394225 ZINC000000568486 ZINC00568486
 27 28 0 0 0
SMALL
GASTEIGER

@<TRIPOS>ATOM
      1 C          12.6361   42.1687    7.3395 C.2     1  UNL1        0.3093
      2 O          12.4622   43.2195    8.0145 O.2     1  UNL1       -0.2521
      3 N          11.5189   41.3834    6.9125 N.am    1  UNL1       -0.2551
      4 N          13.9534   41.7724    6.9454 N.am    1  UNL1       -0.2656
      5 H          11.7052   40.5921    6.3573 H       1  UNL1        0.1578
      6 H          14.0273   41.0867    6.2429 H       1  UNL1        0.1565
      7 C           8.2394   41.7688    8.3356 C.ar    1  UNL1        0.0857
      8 C           8.1254   42.3452    7.0759 C.ar    1  UNL1        0.0408
      9 C           6.8989   42.9665    6.5020 C.3     1  UNL1        0.0500
     10 C          10.1501   41.6605    7.2310 C.ar    1  UNL1        0.1085
     11 C           9.5483   41.3308    8.4260 C.ar    1  UNL1        0.0153
     12 C          10.1996   40.6382    9.5751 C.3     1  UNL1        0.0342
     13 N           9.2899   42.2814    6.3987 N.ar    1  UNL1       -0.3451
     14 H           9.4728   42.6164    5.4912 H       1  UNL1        0.1668
     15 C           7.1883   41.6461    9.3663 C.2     1  UNL1        0.3421
     16 O           7.3205   42.2305   10.4762 O.2     1  UNL1       -0.2449
     17 O           6.0478   40.8826    9.1086 O.3     1  UNL1       -0.4454
     18 C           3.9526   40.6438   10.2477 C.3     1  UNL1        0.0513
     19 C           4.7398   41.4243    9.2159 C.3     1  UNL1        0.2089
     20 C          15.1744   42.2910    7.4886 C.ar    1  UNL1        0.0859
     21 C          15.8441   41.5309    8.4541 C.ar    1  UNL1        0.0178
     22 C          17.0317   41.9924    9.0252 C.ar    1  UNL1        0.0015
     23 C          17.5542   43.2285    8.6439 C.ar    1  UNL1        0.0032
     24 C          16.8801   44.0098    7.7036 C.ar    1  UNL1        0.0382
     25 C          15.6802   43.5595    7.1268 C.ar    1  UNL1        0.1521
     26 C          14.9286   44.1145    4.8316 C.3     1  UNL1        0.2525
     27 O          14.9727   44.3677    6.2294 O.3     1  UNL1       -0.4702
@<TRIPOS>BOND
     1    18    19    1
     2    19    17    1
     3    15    17    1
     4    15     7    1
     5     8    13   ar
     6     9     8    1
     7    10     3    1
     8     1     4   am
     9    21    22   ar
    10    23    24   ar
    11    25    27    1
    12    25    20   ar
    13    26    27    1
    14    11     7   ar
    15    12    11    1
    16    13    10   ar
    17     3     1   am
    18     4    20    1
    19    15    16    2
    20     7     8   ar
    21    10    11   ar
    22     1     2    2
    23    20    21   ar
    24    22    23   ar
    25    24    25   ar
    26    13    14    1
    27     3     5    1
    28     4     6    1
@<TRIPOS>MOLECULE
MolPort-002-455-712 568486 CSC026737907 CSSS00026737907 ChemDiv-D039-0036 MCULE-3172344502 PubChem-959504 Z57394225 ZINC000000568486 ZINC00568486
 27 28 0 0 0
SMALL
GASTEIGER

@<TRIPOS>ATOM
      1 C          11.4494   41.9437    6.2418 C.2     1  UNL1        0.3093
      2 O          11.7985   40.9401    6.9210 O.2     1  UNL1       -0.2521
      3 N          12.4015   42.9517    5.8886 N.am    1  UNL1       -0.2551
      4 N          10.1042   42.0643    5.7692 N.am    1  UNL1       -0.2656
      5 H          12.0873   43.6968    5.3271 H       1  UNL1        0.1578
      6 H           9.9306   42.7321    5.0670 H       1  UNL1        0.1565
      7 C          15.6266   42.5545    7.4280 C.ar    1  UNL1        0.0857
      8 C          15.8812   43.3618    6.3255 C.ar    1  UNL1        0.0408
      9 C          17.2084   43.9063    5.9233 C.3     1  UNL1        0.0500
     10 C          13.7766   42.9597    6.2895 C.ar    1  UNL1        0.1085
     11 C          14.2673   42.3006    7.3957 C.ar    1  UNL1        0.0153
     12 C          13.4708   41.4816    8.3545 C.3     1  UNL1        0.0342
     13 N          14.7543   43.6110    5.6278 N.ar    1  UNL1       -0.3451
     14 H          14.6648   44.1525    4.8105 H       1  UNL1        0.1668
     15 C          16.5981   42.0663    8.4280 C.2     1  UNL1        0.3421
     16 O          17.4130   42.8680    8.9610 O.2     1  UNL1       -0.2449
     17 O          16.6116   40.7157    8.7823 O.3     1  UNL1       -0.4454
     18 C          16.7898   38.9824   10.4281 C.3     1  UNL1        0.0513
     19 C          17.4260   40.2224    9.8355 C.3     1  UNL1        0.2089
     20 C           8.9883   41.2934    6.2334 C.ar    1  UNL1        0.0859
     21 C           8.5439   41.4966    7.5447 C.ar    1  UNL1        0.0178
     22 C           7.4683   40.7656    8.0529 C.ar    1  UNL1        0.0015
     23 C           6.8345   39.8123    7.2555 C.ar    1  UNL1        0.0032
     24 C           7.2871   39.5791    5.9555 C.ar    1  UNL1        0.0382
     25 C           8.3733   40.3033    5.4350 C.ar    1  UNL1        0.1521
     26 C           9.7580   38.9559    3.8833 C.3     1  UNL1        0.2525
     27 O           8.8658   40.0285    4.1540 O.3     1  UNL1       -0.4702
@<TRIPOS>BOND
     1    18    19    1
     2    19    17    1
     3    15    17    1
     4    15     7    1
     5     8    13   ar
     6     9     8    1
     7    10     3    1
     8     1     4   am
     9    21    22   ar
    10    23    24   ar
    11    25    27    1
    12    25    20   ar
    13    26    27    1
    14    11     7   ar
    15    12    11    1
    16    13    10   ar
    17     3     1   am
    18     4    20    1
    19    15    16    2
    20     7     8   ar
    21    10    11   ar
    22     1     2    2
    23    20    21   ar
    24    22    23   ar
    25    24    25   ar
    26    13    14    1
    27     3     5    1
    28     4     6    1
@<TRIPOS>MOLECULE
MolPort-002-455-712 568486 CSC026737907 CSSS00026737907 ChemDiv-D039-0036 MCULE-3172344502 PubChem-959504 Z57394225 ZINC000000568486 ZINC00568486
 27 28 0 0 0
SMALL
GASTEIGER

@<TRIPOS>ATOM
      1 C          11.3490   41.4363    8.3321 C.2     1  UNL1        0.3093
      2 O          11.6033   42.5189    8.9266 O.2     1  UNL1       -0.2521
      3 N          12.3738   40.4588    8.1279 N.am    1  UNL1       -0.2551
      4 N          10.0171   41.1459    7.8970 N.am    1  UNL1       -0.2656
      5 H          12.1165   39.6150    7.6907 H       1  UNL1        0.1578
      6 H           9.8170   40.2152    7.6461 H       1  UNL1        0.1565
      7 C          15.8259   41.3542    8.5861 C.ar    1  UNL1        0.0857
      8 C          15.6155   40.3494    9.5232 C.ar    1  UNL1        0.0408
      9 C          16.6272   39.8095   10.4743 C.3     1  UNL1        0.0500
     10 C          13.7453   40.6138    8.5110 C.ar    1  UNL1        0.1085
     11 C          14.6144   41.5174    7.9391 C.ar    1  UNL1        0.0153
     12 C          14.2901   42.4724    6.8403 C.3     1  UNL1        0.0342
     13 N          14.3464   39.8952    9.4806 N.ar    1  UNL1       -0.3451
     14 H          13.9449   39.1900   10.0381 H       1  UNL1        0.1668
     15 C          17.0772   42.0961    8.3296 C.2     1  UNL1        0.3421
     16 O          18.1222   41.4753    7.9927 O.2     1  UNL1       -0.2449
     17 O          17.1002   43.4863    8.4600 O.3     1  UNL1       -0.4454
     18 C          17.6058   43.7813    6.1358 C.3     1  UNL1        0.0513
     19 C          16.9017   44.3493    7.3502 C.3     1  UNL1        0.2089
     20 C           8.9500   42.0978    7.7963 C.ar    1  UNL1        0.0859
     21 C           8.7046   42.9345    8.8908 C.ar    1  UNL1        0.0178
     22 C           7.6711   43.8725    8.8520 C.ar    1  UNL1        0.0015
     23 C           6.8629   43.9726    7.7193 C.ar    1  UNL1        0.0032
     24 C           7.0784   43.1235    6.6322 C.ar    1  UNL1        0.0382
     25 C           8.1109   42.1704    6.6621 C.ar    1  UNL1        0.1521
     26 C           8.0117   39.8889    5.7000 C.3     1  UNL1        0.2525
     27 O           8.2897   41.2789    5.5980 O.3     1  UNL1       -0.4702
@<TRIPOS>BOND
     1    18    19    1
     2    19    17    1
     3    15    17    1
     4    15     7    1
     5     8    13   ar
     6     9     8    1
     7    10     3    1
     8     1     4   am
     9    21    22   ar
    10    23    24   ar
    11    25    27    1
    12    25    20   ar
    13    26    27    1
    14    11     7   ar
    15    12    11    1
    16    13    10   ar
    17     3     1   am
    18     4    20    1
    19    15    16    2
    20     7     8   ar
    21    10    11   ar
    22     1     2    2
    23    20    21   ar
    24    22    23   ar
    25    24    25   ar
    26    13    14    1
    27     3     5    1
    28     4     6    1
@<TRIPOS>MOLECULE
MolPort-002-455-712 568486 CSC026737907 CSSS00026737907 ChemDiv-D039-0036 MCULE-3172344502 PubChem-959504 Z57394225 ZINC000000568486 ZINC00568486
 27 28 0 0 0
SMALL
GASTEIGER

@<TRIPOS>ATOM
      1 C           9.0434   41.7722    9.2577 C.2     1  UNL1        0.3093
      2 O           9.2419   42.8930    8.7150 O.2     1  UNL1       -0.2521
      3 N          10.1147   40.8360    9.4097 N.am    1  UNL1       -0.2551
      4 N           7.7525   41.4392    9.7774 N.am    1  UNL1       -0.2656
      5 H           9.9167   39.9898    9.8722 H       1  UNL1        0.1578
      6 H           7.6956   40.6649   10.3828 H       1  UNL1        0.1565
      7 C          13.6581   40.9644    8.8124 C.ar    1  UNL1        0.0857
      8 C          13.1141   41.6581    7.7377 C.ar    1  UNL1        0.0408
      9 C          13.8756   42.2876    6.6225 C.3     1  UNL1        0.0500
     10 C          11.4533   41.0358    8.9405 C.ar    1  UNL1        0.1085
     11 C          12.5794   40.5671    9.5816 C.ar    1  UNL1        0.0153
     12 C          12.6053   39.7881   10.8532 C.3     1  UNL1        0.0342
     13 N          11.7683   41.7034    7.8122 N.ar    1  UNL1       -0.3451
     14 H          11.1487   42.1321    7.1785 H       1  UNL1        0.1668
     15 C          15.0866   40.7026    9.0827 C.2     1  UNL1        0.3421
     16 O          15.4197   39.8885    9.9867 O.2     1  UNL1       -0.2449
     17 O          16.0670   41.3576    8.3346 O.3     1  UNL1       -0.4454
     18 C          17.7701   43.0178    8.0384 C.3     1  UNL1        0.0513
     19 C          17.2142   41.9352    8.9396 C.3     1  UNL1        0.2089
     20 C           6.5351   42.1393    9.4897 C.ar    1  UNL1        0.0859
     21 C           6.6055   43.2891    8.6952 C.ar    1  UNL1        0.0178
     22 C           5.4528   44.0166    8.3924 C.ar    1  UNL1        0.0015
     23 C           4.2176   43.6063    8.8945 C.ar    1  UNL1        0.0032
     24 C           4.1381   42.4778    9.7127 C.ar    1  UNL1        0.0382
     25 C           5.2922   41.7414   10.0306 C.ar    1  UNL1        0.1521
     26 C           4.0485   40.3097   11.6257 C.3     1  UNL1        0.2525
     27 O           5.2226   40.6457   10.8988 O.3     1  UNL1       -0.4702
@<TRIPOS>BOND
     1    18    19    1
     2    19    17    1
     3    15    17    1
     4    15     7    1
     5     8    13   ar
     6     9     8    1
     7    10     3    1
     8     1     4   am
     9    21    22   ar
    10    23    24   ar
    11    25    27    1
    12    25    20   ar
    13    26    27    1
    14    11     7   ar
    15    12    11    1
    16    13    10   ar
    17     3     1   am
    18     4    20    1
    19    15    16    2
    20     7     8   ar
    21    10    11   ar
    22     1     2    2
    23    20    21   ar
    24    22    23   ar
    25    24    25   ar
    26    13    14    1
    27     3     5    1
    28     4     6    1
@<TRIPOS>MOLECULE
MolPort-002-455-712 568486 CSC026737907 CSSS00026737907 ChemDiv-D039-0036 MCULE-3172344502 PubChem-959504 Z57394225 ZINC000000568486 ZINC00568486
 27 28 0 0 0
SMALL
GASTEIGER

@<TRIPOS>ATOM
      1 C          10.5649   39.9201    9.0672 C.2     1  UNL1        0.3093
      2 O          11.3459   40.5604    8.3120 O.2     1  UNL1       -0.2521
      3 N          11.0251   38.7723    9.7869 N.am    1  UNL1       -0.2551
      4 N           9.2175   40.3630    9.2563 N.am    1  UNL1       -0.2656
      5 H          10.3868   38.3286   10.3910 H       1  UNL1        0.1578
      6 H           8.7176   39.9777   10.0120 H       1  UNL1        0.1565
      7 C          14.4820   37.8318   10.0940 C.ar    1  UNL1        0.0857
      8 C          14.0082   37.0266    9.0648 C.ar    1  UNL1        0.0408
      9 C          14.7990   36.0208    8.3014 C.3     1  UNL1        0.0500
     10 C          12.3433   38.2193    9.6956 C.ar    1  UNL1        0.1085
     11 C          13.4011   38.5966   10.4941 C.ar    1  UNL1        0.0153
     12 C          13.3642   39.6285   11.5703 C.3     1  UNL1        0.0342
     13 N          12.7029   37.2600    8.8190 N.ar    1  UNL1       -0.3451
     14 H          12.1344   36.8235    8.1441 H       1  UNL1        0.1668
     15 C          15.8504   37.8685   10.6491 C.2     1  UNL1        0.3421
     16 O          16.0790   37.4003   11.7978 O.2     1  UNL1       -0.2449
     17 O          16.8902   38.4217    9.8990 O.3     1  UNL1       -0.4454
     18 C          16.7675   40.7841    9.5137 C.3     1  UNL1        0.0513
     19 C          17.4846   39.6652   10.2397 C.3     1  UNL1        0.2089
     20 C           8.5350   41.3209    8.4369 C.ar    1  UNL1        0.0859
     21 C           8.3299   42.6055    8.9527 C.ar    1  UNL1        0.0178
     22 C           7.6615   43.5752    8.2027 C.ar    1  UNL1        0.0015
     23 C           7.1790   43.2630    6.9315 C.ar    1  UNL1        0.0032
     24 C           7.3510   41.9764    6.4174 C.ar    1  UNL1        0.0382
     25 C           8.0158   40.9897    7.1655 C.ar    1  UNL1        0.1521
     26 C           8.7545   39.3784    5.4338 C.3     1  UNL1        0.2525
     27 O           8.1360   39.6838    6.6764 O.3     1  UNL1       -0.4702
@<TRIPOS>BOND
     1    18    19    1
     2    19    17    1
     3    15    17    1
     4    15     7    1
     5     8    13   ar
     6     9     8    1
     7    10     3    1
     8     1     4   am
     9    21    22   ar
    10    23    24   ar
    11    25    27    1
    12    25    20   ar
    13    26    27    1
    14    11     7   ar
    15    12    11    1
    16    13    10   ar
    17     3     1   am
    18     4    20    1
    19    15    16    2
    20     7     8   ar
    21    10    11   ar
    22     1     2    2
    23    20    21   ar
    24    22    23   ar
    25    24    25   ar
    26    13    14    1
    27     3     5    1
    28     4     6    1
@<TRIPOS>MOLECULE
MolPort-002-455-712 568486 CSC026737907 CSSS00026737907 ChemDiv-D039-0036 MCULE-3172344502 PubChem-959504 Z57394225 ZINC000000568486 ZINC00568486
 27 28 0 0 0
SMALL
GASTEIGER

@<TRIPOS>ATOM
      1 C          10.1291   40.9391   10.3373 C.2     1  UNL1        0.3093
      2 O           9.9963   40.4043    9.2031 O.2     1  UNL1       -0.2521
      3 N           9.0538   41.6775   10.9253 N.am    1  UNL1       -0.2551
      4 N          11.3420   40.7719   11.0778 N.am    1  UNL1       -0.2656
      5 H           9.1948   42.0450   11.8277 H       1  UNL1        0.1578
      6 H          11.3236   41.0079   12.0335 H       1  UNL1        0.1565
      7 C           6.1936   42.8826    9.1099 C.ar    1  UNL1        0.0857
      8 C           5.7510   41.6933    9.6768 C.ar    1  UNL1        0.0408
      9 C           4.3913   41.1024    9.5292 C.3     1  UNL1        0.0500
     10 C           7.7879   41.9231   10.3016 C.ar    1  UNL1        0.1085
     11 C           7.5078   43.0217    9.5183 C.ar    1  UNL1        0.0153
     12 C           8.4512   44.1292    9.1900 C.3     1  UNL1        0.0342
     13 N           6.7216   41.1043   10.4047 N.ar    1  UNL1       -0.3451
     14 H           6.6639   40.2580   10.9043 H       1  UNL1        0.1668
     15 C           5.4275   43.8086    8.2509 C.2     1  UNL1        0.3421
     16 O           4.6764   44.6780    8.7714 O.2     1  UNL1       -0.2449
     17 O           5.5376   43.7197    6.8617 O.3     1  UNL1       -0.4454
     18 C           6.8432   41.9287    5.9495 C.3     1  UNL1        0.0513
     19 C           6.7685   43.4164    6.2224 C.3     1  UNL1        0.2089
     20 C          12.5817   40.2894   10.5437 C.ar    1  UNL1        0.0859
     21 C          13.2018   39.2101   11.1832 C.ar    1  UNL1        0.0178
     22 C          14.4160   38.7062   10.7127 C.ar    1  UNL1        0.0015
     23 C          15.0290   39.2882    9.6029 C.ar    1  UNL1        0.0032
     24 C          14.4355   40.3842    8.9739 C.ar    1  UNL1        0.0382
     25 C          13.2171   40.9051    9.4424 C.ar    1  UNL1        0.1521
     26 C          12.4302   42.1521    7.4507 C.3     1  UNL1        0.2525
     27 O          12.6518   42.0403    8.8501 O.3     1  UNL1       -0.4702
@<TRIPOS>BOND
     1    18    19    1
     2    19    17    1
     3    15    17    1
     4    15     7    1
     5     8    13   ar
     6     9     8    1
     7    10     3    1
     8     1     4   am
     9    21    22   ar
    10    23    24   ar
    11    25    27    1
    12    25    20   ar
    13    26    27    1
    14    11     7   ar
    15    12    11    1
    16    13    10   ar
    17     3     1   am
    18     4    20    1
    19    15    16    2
    20     7     8   ar
    21    10    11   ar
    22     1     2    2
    23    20    21   ar
    24    22    23   ar
    25    24    25   ar
    26    13    14    1
    27     3     5    1
    28     4     6    1
@<TRIPOS>MOLECULE
MolPort-002-455-712 568486 CSC026737907 CSSS00026737907 ChemDiv-D039-0036 MCULE-3172344502 PubChem-959504 Z57394225 ZINC000000568486 ZINC00568486
 27 28 0 0 0
SMALL
GASTEIGER

@<TRIPOS>ATOM
      1 C           9.2930   40.9792    8.8538 C.2     1  UNL1        0.3093
      2 O           9.7536   42.1353    8.6506 O.2     1  UNL1       -0.2521
      3 N           7.8810   40.7483    8.8621 N.am    1  UNL1       -0.2551
      4 N          10.1783   39.8687    9.0285 N.am    1  UNL1       -0.2656
      5 H           7.5726   39.8220    8.9892 H       1  UNL1        0.1578
      6 H           9.7901   38.9666    8.9593 H       1  UNL1        0.1565
      7 C           4.9837   42.8777    8.8868 C.ar    1  UNL1        0.0857
      8 C           5.8852   43.5517    8.0713 C.ar    1  UNL1        0.0408
      9 C           5.6492   44.8563    7.3915 C.3     1  UNL1        0.0500
     10 C           6.8817   41.7616    8.6997 C.ar    1  UNL1        0.1085
     11 C           5.6356   41.7253    9.2870 C.ar    1  UNL1        0.0153
     12 C           5.1148   40.6458   10.1747 C.3     1  UNL1        0.0342
     13 N           7.0452   42.8737    7.9550 N.ar    1  UNL1       -0.3451
     14 H           7.8409   43.1348    7.4374 H       1  UNL1        0.1668
     15 C           3.6157   43.2975    9.2534 C.2     1  UNL1        0.3421
     16 O           3.1392   44.3706    8.7925 O.2     1  UNL1       -0.2449
     17 O           2.8511   42.5033   10.1105 O.3     1  UNL1       -0.4454
     18 C           1.7148   42.3041   12.2114 C.3     1  UNL1        0.0513
     19 C           3.0444   42.5124   11.5170 C.3     1  UNL1        0.2089
     20 C          11.5836   39.9606    9.2960 C.ar    1  UNL1        0.0859
     21 C          12.0255   39.7188   10.6016 C.ar    1  UNL1        0.0178
     22 C          13.3819   39.8053   10.9214 C.ar    1  UNL1        0.0015
     23 C          14.3094   40.1487    9.9375 C.ar    1  UNL1        0.0032
     24 C          13.8781   40.4213    8.6380 C.ar    1  UNL1        0.0382
     25 C          12.5147   40.3447    8.3054 C.ar    1  UNL1        0.1521
     26 C          11.4558   39.7379    6.1488 C.3     1  UNL1        0.2525
     27 O          12.0746   40.6760    7.0187 O.3     1  UNL1       -0.4702
@<TRIPOS>BOND
     1    18    19    1
     2    19    17    1
     3    15    17    1
     4    15     7    1
     5     8    13   ar
     6     9     8    1
     7    10     3    1
     8     1     4   am
     9    21    22   ar
    10    23    24   ar
    11    25    27    1
    12    25    20   ar
    13    26    27    1
    14    11     7   ar
    15    12    11    1
    16    13    10   ar
    17     3     1   am
    18     4    20    1
    19    15    16    2
    20     7     8   ar
    21    10    11   ar
    22     1     2    2
    23    20    21   ar
    24    22    23   ar
    25    24    25   ar
    26    13    14    1
    27     3     5    1
    28     4     6    1
@<TRIPOS>MOLECULE
MolPort-002-455-712 568486 CSC026737907 CSSS00026737907 ChemDiv-D039-0036 MCULE-3172344502 PubChem-959504 Z57394225 ZINC000000568486 ZINC00568486
 27 28 0 0 0
SMALL
GASTEIGER

@<TRIPOS>ATOM
      1 C           9.6519   40.3588    8.7456 C.2     1  UNL1        0.3093
      2 O          10.4186   41.3561    8.6572 O.2     1  UNL1       -0.2521
      3 N          10.1707   39.0680    9.0797 N.am    1  UNL1       -0.2551
      4 N           8.2411   40.5132    8.5632 N.am    1  UNL1       -0.2656
      5 H           9.5267   38.3291    9.1718 H       1  UNL1        0.1578
      6 H           7.6640   39.7719    8.8578 H       1  UNL1        0.1565
      7 C          13.5791   38.7417   10.1778 C.ar    1  UNL1        0.0857
      8 C          13.5176   37.9434    9.0416 C.ar    1  UNL1        0.0408
      9 C          14.6402   37.1549    8.4604 C.3     1  UNL1        0.0500
     10 C          11.5555   38.7683    9.2905 C.ar    1  UNL1        0.1085
     11 C          12.3093   39.2687   10.3299 C.ar    1  UNL1        0.0153
     12 C          11.8292   40.1946   11.3961 C.3     1  UNL1        0.0342
     13 N          12.2837   37.9567    8.4974 N.ar    1  UNL1       -0.3451
     14 H          11.9799   37.4767    7.6934 H       1  UNL1        0.1668
     15 C          14.7504   38.9816   11.0454 C.2     1  UNL1        0.3421
     16 O          14.7339   38.6025   12.2482 O.2     1  UNL1       -0.2449
     17 O          15.8759   39.6282   10.5305 O.3     1  UNL1       -0.4454
     18 C          17.6924   38.0842   10.2835 C.3     1  UNL1        0.0513
     19 C          17.1880   39.3291   10.9829 C.3     1  UNL1        0.2089
     20 C           7.5981   41.6576    7.9870 C.ar    1  UNL1        0.0859
     21 C           7.7965   41.9118    6.6253 C.ar    1  UNL1        0.0178
     22 C           7.2036   43.0184    6.0141 C.ar    1  UNL1        0.0015
     23 C           6.4155   43.8905    6.7655 C.ar    1  UNL1        0.0032
     24 C           6.2339   43.6646    8.1312 C.ar    1  UNL1        0.0382
     25 C           6.8313   42.5583    8.7593 C.ar    1  UNL1        0.1521
     26 C           5.6768   41.5602   10.7117 C.3     1  UNL1        0.2525
     27 O           6.6993   42.3642   10.1392 O.3     1  UNL1       -0.4702
@<TRIPOS>BOND
     1    18    19    1
     2    19    17    1
     3    15    17    1
     4    15     7    1
     5     8    13   ar
     6     9     8    1
     7    10     3    1
     8     1     4   am
     9    21    22   ar
    10    23    24   ar
    11    25    27    1
    12    25    20   ar
    13    26    27    1
    14    11     7   ar
    15    12    11    1
    16    13    10   ar
    17     3     1   am
    18     4    20    1
    19    15    16    2
    20     7     8   ar
    21    10    11   ar
    22     1     2    2
    23    20    21   ar
    24    22    23   ar
    25    24    25   ar
    26    13    14    1
    27     3     5    1
    28     4     6    1
