@<TRIPOS>MOLECULE
Molport-047-072-371 PubChem-132765989
 29 32 0 0 0
SMALL
GASTEIGER

@<TRIPOS>ATOM
      1 C          13.0873   39.9584    9.0027 C.3     1  UNL1        0.0603
      2 C          12.5772   40.4452    7.6434 C.3     1  UNL1        0.0094
      3 C          11.0667   40.2313    7.4536 C.3     1  UNL1        0.0220
      4 C          10.3613   39.7495    8.7224 C.3     1  UNL1        0.0937
      5 C          12.2777   40.5886   10.1392 C.3     1  UNL1        0.0996
      6 C           9.9244   41.1237   10.8112 C.2     1  UNL1        0.2493
      7 N          10.8361   40.5075    9.8807 N.am    1  UNL1       -0.2757
      8 O          10.3185   41.3832   11.9795 O.2     1  UNL1       -0.2699
      9 C          17.4764   38.9204   11.0227 C.3     1  UNL1        0.0737
     10 C          16.6437   39.7633   10.1259 C.ar    1  UNL1        0.1406
     11 C          16.4642   41.5867    8.6268 C.ar    1  UNL1        0.1361
     12 C          15.1041   41.3252    8.4650 C.ar    1  UNL1        0.0492
     13 C          14.5410   40.2564    9.1620 C.ar    1  UNL1        0.0644
     14 N          17.2066   40.8009    9.4538 N.ar    1  UNL1       -0.2159
     15 N          15.3201   39.4958    9.9787 N.ar    1  UNL1       -0.2348
     16 N          17.0542   42.6810    7.9169 N.pl3   1  UNL1       -0.2767
     17 H          18.0205   42.8274    8.0353 H       1  UNL1        0.1555
     18 C          16.3558   43.5797    7.0494 C.ar    1  UNL1        0.1872
     19 C          14.8201   44.7676    5.6126 C.ar    1  UNL1        0.1605
     20 N          16.8553   44.7447    6.5896 N.ar    1  UNL1       -0.1253
     21 N          16.0054   45.3971    5.7974 N.ar    1  UNL1       -0.1374
     22 S          14.8044   43.3157    6.4729 S.2     1  UNL1       -0.0283
     23 C           8.5363   41.4852   10.4665 C.2     1  UNL1        0.0611
     24 C           7.5186   41.4186   11.3173 C.2     1  UNL1        0.0422
     25 C           6.1633   41.7933   10.9116 C.ar    1  UNL1        0.1457
     26 C           5.8170   42.2325    9.6540 C.ar    1  UNL1        0.0407
     27 C           4.4545   42.4660    9.7262 C.ar    1  UNL1        0.0438
     28 C           4.0661   42.1539   11.0183 C.ar    1  UNL1        0.1796
     29 O           5.1156   41.7559   11.6956 O.2     1  UNL1       -0.4504
@<TRIPOS>BOND
     1     9    10    1
     2    10    15   ar
     3    11    14   ar
     4    11    16    1
     5    18    22   ar
     6    19    22   ar
     7    12    13   ar
     8     1    13    1
     9     1     2    1
    10     2     3    1
    11     3     4    1
    12     4     7    1
    13     5     7    1
    14     5     1    1
    15     6    23    1
    16    24    25    1
    17    25    29   ar
    18    26    27   ar
    19    28    29   ar
    20    16    18    1
    21    20    21   ar
    22     7     6   am
    23    10    14   ar
    24    11    12   ar
    25    18    20   ar
    26    19    21   ar
    27    13    15   ar
    28     6     8    2
    29    23    24    2
    30    25    26   ar
    31    27    28   ar
    32    16    17    1
@<TRIPOS>MOLECULE
Molport-047-072-371 PubChem-132765989
 29 32 0 0 0
SMALL
GASTEIGER

@<TRIPOS>ATOM
      1 C          12.5569   40.1546    8.8033 C.3     1  UNL1        0.0603
      2 C          12.1432   40.7795    7.4680 C.3     1  UNL1        0.0094
      3 C          10.6275   40.7206    7.2178 C.3     1  UNL1        0.0220
      4 C           9.8353   40.2198    8.4267 C.3     1  UNL1        0.0937
      5 C          11.7667   40.7771    9.9574 C.3     1  UNL1        0.0996
      6 C           9.4484   41.4807   10.5952 C.2     1  UNL1        0.2493
      7 N          10.3340   40.8484    9.6504 N.am    1  UNL1       -0.2757
      8 O           9.8214   41.6211   11.7905 O.2     1  UNL1       -0.2699
      9 C          16.7364   38.6435   10.9643 C.3     1  UNL1        0.0737
     10 C          16.0276   39.5847   10.0590 C.ar    1  UNL1        0.1406
     11 C          16.0889   41.4515    8.6044 C.ar    1  UNL1        0.1361
     12 C          14.7177   41.3288    8.3824 C.ar    1  UNL1        0.0492
     13 C          14.0249   40.3045    9.0273 C.ar    1  UNL1        0.0644
     14 N          16.7162   40.5775    9.4380 N.ar    1  UNL1       -0.2159
     15 N          14.6916   39.4522    9.8528 N.ar    1  UNL1       -0.2348
     16 N          16.8115   42.4987    7.9482 N.pl3   1  UNL1       -0.2767
     17 H          17.7836   42.5390    8.0981 H       1  UNL1        0.1555
     18 C          16.2378   43.4919    7.0923 C.ar    1  UNL1        0.1872
     19 C          14.8619   44.9095    5.7027 C.ar    1  UNL1        0.1605
     20 N          16.9112   44.5392    6.5746 N.ar    1  UNL1       -0.1253
     21 N          16.1490   45.3188    5.8087 N.ar    1  UNL1       -0.1374
     22 S          14.6348   43.5005    6.6035 S.2     1  UNL1       -0.0283
     23 C           8.1123   41.9927   10.2359 C.2     1  UNL1        0.0611
     24 C           7.8701   42.7571    9.1771 C.2     1  UNL1        0.0422
     25 C           6.5189   43.2318    8.8758 C.ar    1  UNL1        0.1457
     26 C           6.2308   44.3150    8.0770 C.ar    1  UNL1        0.0407
     27 C           4.8487   44.3918    8.0742 C.ar    1  UNL1        0.0438
     28 C           4.3918   43.3537    8.8687 C.ar    1  UNL1        0.1796
     29 O           5.4201   42.6836    9.3294 O.2     1  UNL1       -0.4504
@<TRIPOS>BOND
     1     9    10    1
     2    10    15   ar
     3    11    14   ar
     4    11    16    1
     5    18    22   ar
     6    19    22   ar
     7    12    13   ar
     8     1    13    1
     9     1     2    1
    10     2     3    1
    11     3     4    1
    12     4     7    1
    13     5     7    1
    14     5     1    1
    15     6    23    1
    16    24    25    1
    17    25    29   ar
    18    26    27   ar
    19    28    29   ar
    20    16    18    1
    21    20    21   ar
    22     7     6   am
    23    10    14   ar
    24    11    12   ar
    25    18    20   ar
    26    19    21   ar
    27    13    15   ar
    28     6     8    2
    29    23    24    2
    30    25    26   ar
    31    27    28   ar
    32    16    17    1
@<TRIPOS>MOLECULE
Molport-047-072-371 PubChem-132765989
 29 32 0 0 0
SMALL
GASTEIGER

@<TRIPOS>ATOM
      1 C          10.9933   42.2636    9.2690 C.3     1  UNL1        0.0603
      2 C          10.6287   42.7369   10.6789 C.3     1  UNL1        0.0094
      3 C           9.2154   43.3354   10.7680 C.3     1  UNL1        0.0220
      4 C           8.4063   43.1668    9.4809 C.3     1  UNL1        0.0937
      5 C           9.9331   41.2973    8.7339 C.3     1  UNL1        0.0996
      6 C           7.4510   40.9939    8.5820 C.2     1  UNL1        0.2493
      7 N           8.5773   41.8127    8.9530 N.am    1  UNL1       -0.2757
      8 O           7.6178   40.0518    7.7620 O.2     1  UNL1       -0.2699
      9 C          14.1844   38.9498   11.0741 C.3     1  UNL1        0.0737
     10 C          13.8735   40.0421   10.1158 C.ar    1  UNL1        0.1406
     11 C          14.5552   41.4556    8.3433 C.ar    1  UNL1        0.1361
     12 C          13.3005   42.0641    8.3405 C.ar    1  UNL1        0.0492
     13 C          12.3430   41.6266    9.2554 C.ar    1  UNL1        0.0644
     14 N          14.8166   40.4573    9.2306 N.ar    1  UNL1       -0.2159
     15 N          12.6466   40.6248   10.1253 N.ar    1  UNL1       -0.2348
     16 N          15.5466   41.8956    7.4091 N.pl3   1  UNL1       -0.2767
     17 H          16.3244   41.3090    7.2665 H       1  UNL1        0.1555
     18 C          15.5010   43.1173    6.6652 C.ar    1  UNL1        0.1872
     19 C          15.8108   45.2999    5.6783 C.ar    1  UNL1        0.1605
     20 N          14.5927   43.3993    5.7094 N.ar    1  UNL1       -0.1253
     21 N          14.7667   44.6040    5.1673 N.ar    1  UNL1       -0.1374
     22 S          16.5760   44.3861    6.8731 S.2     1  UNL1       -0.0283
     23 C           6.0932   41.1902    9.1241 C.2     1  UNL1        0.0611
     24 C           5.8355   41.4794   10.3946 C.2     1  UNL1        0.0422
     25 C           4.4632   41.6628   10.8689 C.ar    1  UNL1        0.1457
     26 C           3.4718   42.3064   10.1638 C.ar    1  UNL1        0.0407
     27 C           2.3587   42.2422   10.9843 C.ar    1  UNL1        0.0438
     28 C           2.7476   41.5661   12.1286 C.ar    1  UNL1        0.1796
     29 O           4.0119   41.2365   12.0214 O.2     1  UNL1       -0.4504
@<TRIPOS>BOND
     1     9    10    1
     2    10    15   ar
     3    11    14   ar
     4    11    16    1
     5    18    22   ar
     6    19    22   ar
     7    12    13   ar
     8     1    13    1
     9     1     2    1
    10     2     3    1
    11     3     4    1
    12     4     7    1
    13     5     7    1
    14     5     1    1
    15     6    23    1
    16    24    25    1
    17    25    29   ar
    18    26    27   ar
    19    28    29   ar
    20    16    18    1
    21    20    21   ar
    22     7     6   am
    23    10    14   ar
    24    11    12   ar
    25    18    20   ar
    26    19    21   ar
    27    13    15   ar
    28     6     8    2
    29    23    24    2
    30    25    26   ar
    31    27    28   ar
    32    16    17    1
@<TRIPOS>MOLECULE
Molport-047-072-371 PubChem-132765989
 29 32 0 0 0
SMALL
GASTEIGER

@<TRIPOS>ATOM
      1 C          12.9575   41.2648    7.5398 C.3     1  UNL1        0.0603
      2 C          12.3274   41.7219    6.2211 C.3     1  UNL1        0.0094
      3 C          10.8638   41.2780    6.0656 C.3     1  UNL1        0.0220
      4 C          10.2904   40.6356    7.3298 C.3     1  UNL1        0.0937
      5 C          12.1007   41.7081    8.7287 C.3     1  UNL1        0.0996
      6 C           9.7186   41.8311    9.4945 C.2     1  UNL1        0.2493
      7 N          10.6815   41.4091    8.5089 N.am    1  UNL1       -0.2757
      8 O          10.1093   42.0997   10.6619 O.2     1  UNL1       -0.2699
      9 C          16.4536   44.5177    6.2678 C.3     1  UNL1        0.0737
     10 C          16.0269   43.3387    7.0651 C.ar    1  UNL1        0.1406
     11 C          16.5364   41.6563    8.6508 C.ar    1  UNL1        0.1361
     12 C          15.2395   41.1556    8.5425 C.ar    1  UNL1        0.0492
     13 C          14.3507   41.7839    7.6705 C.ar    1  UNL1        0.0644
     14 N          16.9042   42.7373    7.9102 N.ar    1  UNL1       -0.2159
     15 N          14.7601   42.8627    6.9486 N.ar    1  UNL1       -0.2348
     16 N          17.4583   41.0202    9.5425 N.pl3   1  UNL1       -0.2767
     17 H          18.2953   41.4982    9.7430 H       1  UNL1        0.1555
     18 C          17.2640   39.7471   10.1667 C.ar    1  UNL1        0.1872
     19 C          17.3942   37.5150   11.0801 C.ar    1  UNL1        0.1605
     20 N          16.1246   39.3563   10.7725 N.ar    1  UNL1       -0.1253
     21 N          16.2001   38.1246   11.2751 N.ar    1  UNL1       -0.1374
     22 S          18.4308   38.5461   10.2373 S.2     1  UNL1       -0.0283
     23 C           8.2791   41.9808    9.2085 C.2     1  UNL1        0.0611
     24 C           7.3227   41.8407   10.1194 C.2     1  UNL1        0.0422
     25 C           5.9109   42.0034    9.7699 C.ar    1  UNL1        0.1457
     26 C           4.9810   40.9887    9.7797 C.ar    1  UNL1        0.0407
     27 C           3.7985   41.5919    9.3874 C.ar    1  UNL1        0.0438
     28 C           4.0885   42.9279    9.1666 C.ar    1  UNL1        0.1796
     29 O           5.3608   43.1342    9.4059 O.2     1  UNL1       -0.4504
@<TRIPOS>BOND
     1     9    10    1
     2    10    15   ar
     3    11    14   ar
     4    11    16    1
     5    18    22   ar
     6    19    22   ar
     7    12    13   ar
     8     1    13    1
     9     1     2    1
    10     2     3    1
    11     3     4    1
    12     4     7    1
    13     5     7    1
    14     5     1    1
    15     6    23    1
    16    24    25    1
    17    25    29   ar
    18    26    27   ar
    19    28    29   ar
    20    16    18    1
    21    20    21   ar
    22     7     6   am
    23    10    14   ar
    24    11    12   ar
    25    18    20   ar
    26    19    21   ar
    27    13    15   ar
    28     6     8    2
    29    23    24    2
    30    25    26   ar
    31    27    28   ar
    32    16    17    1
@<TRIPOS>MOLECULE
Molport-047-072-371 PubChem-132765989
 29 32 0 0 0
SMALL
GASTEIGER

@<TRIPOS>ATOM
      1 C          12.2360   37.5780    4.6305 C.3     1  UNL1        0.0603
      2 C          11.9187   38.5155    3.4620 C.3     1  UNL1        0.0094
      3 C          10.6068   39.2940    3.6518 C.3     1  UNL1        0.0220
      4 C           9.9905   39.1090    5.0395 C.3     1  UNL1        0.0937
      5 C          12.2172   38.3438    5.9561 C.3     1  UNL1        0.0996
      6 C          10.8881   40.0514    7.2185 C.2     1  UNL1        0.2493
      7 N          11.0290   39.1968    6.0668 N.am    1  UNL1       -0.2757
      8 O          11.5537   39.7988    8.2581 O.2     1  UNL1       -0.2699
      9 C          15.9769   34.8702    6.3898 C.3     1  UNL1        0.0737
     10 C          15.3449   35.6087    5.2659 C.ar    1  UNL1        0.1406
     11 C          15.4063   36.3389    3.0148 C.ar    1  UNL1        0.1361
     12 C          14.1770   36.9754    3.1834 C.ar    1  UNL1        0.0492
     13 C          13.5525   36.9046    4.4285 C.ar    1  UNL1        0.0644
     14 N          15.9655   35.6687    4.0590 N.ar    1  UNL1       -0.2159
     15 N          14.1471   36.2234    5.4458 N.ar    1  UNL1       -0.2348
     16 N          16.0574   36.4041    1.7416 N.pl3   1  UNL1       -0.2767
     17 H          15.5094   36.6671    0.9672 H       1  UNL1        0.1555
     18 C          17.4390   36.1187    1.5010 C.ar    1  UNL1        0.1872
     19 C          19.6025   35.3921    0.7103 C.ar    1  UNL1        0.1605
     20 N          18.4565   36.5493    2.2739 N.ar    1  UNL1       -0.1253
     21 N          19.6483   36.1466    1.8347 N.ar    1  UNL1       -0.1374
     22 S          18.0003   35.2013    0.2157 S.2     1  UNL1       -0.0283
     23 C          10.0038   41.2319    7.2482 C.2     1  UNL1        0.0611
     24 C           8.6803   41.1660    7.3373 C.2     1  UNL1        0.0422
     25 C           7.8593   42.3773    7.3629 C.ar    1  UNL1        0.1457
     26 C           6.8528   42.6586    6.4672 C.ar    1  UNL1        0.0407
     27 C           6.3588   43.8879    6.8685 C.ar    1  UNL1        0.0438
     28 C           7.0958   44.2693    7.9771 C.ar    1  UNL1        0.1796
     29 O           7.9824   43.3403    8.2411 O.2     1  UNL1       -0.4504
@<TRIPOS>BOND
     1     9    10    1
     2    10    15   ar
     3    11    14   ar
     4    11    16    1
     5    18    22   ar
     6    19    22   ar
     7    12    13   ar
     8     1    13    1
     9     1     2    1
    10     2     3    1
    11     3     4    1
    12     4     7    1
    13     5     7    1
    14     5     1    1
    15     6    23    1
    16    24    25    1
    17    25    29   ar
    18    26    27   ar
    19    28    29   ar
    20    16    18    1
    21    20    21   ar
    22     7     6   am
    23    10    14   ar
    24    11    12   ar
    25    18    20   ar
    26    19    21   ar
    27    13    15   ar
    28     6     8    2
    29    23    24    2
    30    25    26   ar
    31    27    28   ar
    32    16    17    1
@<TRIPOS>MOLECULE
Molport-047-072-371 PubChem-132765989
 29 32 0 0 0
SMALL
GASTEIGER

@<TRIPOS>ATOM
      1 C           9.9895   40.9741    9.1999 C.3     1  UNL1        0.0603
      2 C          10.8193   41.4056   10.4124 C.3     1  UNL1        0.0094
      3 C          12.3196   41.1106   10.2529 C.3     1  UNL1        0.0220
      4 C          12.6928   40.6198    8.8531 C.3     1  UNL1        0.0937
      5 C          10.5546   41.5854    7.9150 C.3     1  UNL1        0.0996
      6 C          12.7209   42.0130    6.7317 C.2     1  UNL1        0.2493
      7 N          12.0107   41.4251    7.8392 N.am    1  UNL1       -0.2757
      8 O          12.0878   42.3167    5.6855 O.2     1  UNL1       -0.2699
      9 C           5.8715   40.9890   11.9319 C.3     1  UNL1        0.0737
     10 C           6.5828   41.3594   10.6810 C.ar    1  UNL1        0.1406
     11 C           6.5584   42.3885    8.5491 C.ar    1  UNL1        0.1361
     12 C           7.8976   42.0464    8.3640 C.ar    1  UNL1        0.0492
     13 C           8.5559   41.3495    9.3770 C.ar    1  UNL1        0.0644
     14 N           5.9280   42.0382    9.7033 N.ar    1  UNL1       -0.2159
     15 N           7.8874   41.0191   10.5156 N.ar    1  UNL1       -0.2348
     16 N           5.8715   43.1039    7.5168 N.pl3   1  UNL1       -0.2767
     17 H           6.2222   43.0219    6.6005 H       1  UNL1        0.1555
     18 C           4.7172   43.9284    7.7062 C.ar    1  UNL1        0.1872
     19 C           2.9909   45.6177    7.7122 C.ar    1  UNL1        0.1605
     20 N           3.6808   43.6226    8.5127 N.ar    1  UNL1       -0.1253
     21 N           2.7306   44.5567    8.5135 N.ar    1  UNL1       -0.1374
     22 S           4.4812   45.4050    6.9494 S.2     1  UNL1       -0.0283
     23 C          14.1686   42.2955    6.7558 C.2     1  UNL1        0.0611
     24 C          14.6962   43.4898    6.5117 C.2     1  UNL1        0.0422
     25 C          16.1434   43.7038    6.5525 C.ar    1  UNL1        0.1457
     26 C          16.9049   43.6816    7.6988 C.ar    1  UNL1        0.0407
     27 C          18.1968   43.9285    7.2672 C.ar    1  UNL1        0.0438
     28 C          18.1334   44.0835    5.8926 C.ar    1  UNL1        0.1796
     29 O          16.8894   43.9422    5.5036 O.2     1  UNL1       -0.4504
@<TRIPOS>BOND
     1     9    10    1
     2    10    15   ar
     3    11    14   ar
     4    11    16    1
     5    18    22   ar
     6    19    22   ar
     7    12    13   ar
     8     1    13    1
     9     1     2    1
    10     2     3    1
    11     3     4    1
    12     4     7    1
    13     5     7    1
    14     5     1    1
    15     6    23    1
    16    24    25    1
    17    25    29   ar
    18    26    27   ar
    19    28    29   ar
    20    16    18    1
    21    20    21   ar
    22     7     6   am
    23    10    14   ar
    24    11    12   ar
    25    18    20   ar
    26    19    21   ar
    27    13    15   ar
    28     6     8    2
    29    23    24    2
    30    25    26   ar
    31    27    28   ar
    32    16    17    1
@<TRIPOS>MOLECULE
Molport-047-072-371 PubChem-132765989
 29 32 0 0 0
SMALL
GASTEIGER

@<TRIPOS>ATOM
      1 C          12.9693   41.3644    7.5266 C.3     1  UNL1        0.0603
      2 C          12.4241   41.8066    6.1657 C.3     1  UNL1        0.0094
      3 C          10.9385   41.4628    5.9700 C.3     1  UNL1        0.0220
      4 C          10.2727   40.9203    7.2357 C.3     1  UNL1        0.0937
      5 C          12.1039   41.9208    8.6604 C.3     1  UNL1        0.0996
      6 C           9.7105   42.2492    9.3237 C.2     1  UNL1        0.2493
      7 N          10.6756   41.7154    8.3963 N.am    1  UNL1       -0.2757
      8 O          10.0763   42.5407   10.4937 O.2     1  UNL1       -0.2699
      9 C          16.7454   44.2855    6.2499 C.3     1  UNL1        0.0737
     10 C          16.2011   43.1830    7.0842 C.ar    1  UNL1        0.1406
     11 C          16.5212   41.5516    8.7696 C.ar    1  UNL1        0.1361
     12 C          15.1957   41.1414    8.6301 C.ar    1  UNL1        0.0492
     13 C          14.3911   41.7871    7.6916 C.ar    1  UNL1        0.0644
     14 N          16.9973   42.5637    7.9941 N.ar    1  UNL1       -0.2159
     15 N          14.9078   42.7949    6.9367 N.ar    1  UNL1       -0.2348
     16 N          17.3574   40.8968    9.7295 N.pl3   1  UNL1       -0.2767
     17 H          17.8672   41.4681   10.3484 H       1  UNL1        0.1555
     18 C          17.5138   39.4807    9.8642 C.ar    1  UNL1        0.1872
     19 C          18.2068   37.2062   10.2883 C.ar    1  UNL1        0.1605
     20 N          16.6010   38.5682    9.4739 N.ar    1  UNL1       -0.1253
     21 N          16.9868   37.3147    9.7094 N.ar    1  UNL1       -0.1374
     22 S          18.8625   38.7422   10.5308 S.2     1  UNL1       -0.0283
     23 C           8.2976   42.4894    8.9740 C.2     1  UNL1        0.0611
     24 C           7.6834   43.6573    9.1255 C.2     1  UNL1        0.0422
     25 C           6.2775   43.8297    8.7575 C.ar    1  UNL1        0.1457
     26 C           5.8285   44.6505    7.7481 C.ar    1  UNL1        0.0407
     27 C           4.4524   44.5004    7.7589 C.ar    1  UNL1        0.0438
     28 C           4.1591   43.6015    8.7706 C.ar    1  UNL1        0.1796
     29 O           5.2760   43.2237    9.3437 O.2     1  UNL1       -0.4504
@<TRIPOS>BOND
     1     9    10    1
     2    10    15   ar
     3    11    14   ar
     4    11    16    1
     5    18    22   ar
     6    19    22   ar
     7    12    13   ar
     8     1    13    1
     9     1     2    1
    10     2     3    1
    11     3     4    1
    12     4     7    1
    13     5     7    1
    14     5     1    1
    15     6    23    1
    16    24    25    1
    17    25    29   ar
    18    26    27   ar
    19    28    29   ar
    20    16    18    1
    21    20    21   ar
    22     7     6   am
    23    10    14   ar
    24    11    12   ar
    25    18    20   ar
    26    19    21   ar
    27    13    15   ar
    28     6     8    2
    29    23    24    2
    30    25    26   ar
    31    27    28   ar
    32    16    17    1
@<TRIPOS>MOLECULE
Molport-047-072-371 PubChem-132765989
 29 32 0 0 0
SMALL
GASTEIGER

@<TRIPOS>ATOM
      1 C          10.4251   42.4012    9.5125 C.3     1  UNL1        0.0603
      2 C          10.1650   41.3607   10.6055 C.3     1  UNL1        0.0094
      3 C           9.0369   41.7658   11.5682 C.3     1  UNL1        0.0220
      4 C           8.2920   43.0273   11.1284 C.3     1  UNL1        0.0937
      5 C           9.1312   42.7312    8.7636 C.3     1  UNL1        0.0996
      6 C           6.7065   43.2238    9.1562 C.2     1  UNL1        0.2493
      7 N           8.0215   42.9764    9.6911 N.am    1  UNL1       -0.2757
      8 O           6.5885   43.5915    7.9568 O.2     1  UNL1       -0.2699
      9 C          15.0824   41.0010    8.6342 C.3     1  UNL1        0.0737
     10 C          13.7038   41.2540    8.1408 C.ar    1  UNL1        0.1406
     11 C          12.1483   41.2761    6.3564 C.ar    1  UNL1        0.1361
     12 C          11.1522   41.7217    7.2246 C.ar    1  UNL1        0.0492
     13 C          11.4762   41.9252    8.5659 C.ar    1  UNL1        0.0644
     14 N          13.4037   41.0513    6.8315 N.ar    1  UNL1       -0.2159
     15 N          12.7445   41.6879    8.9989 N.ar    1  UNL1       -0.2348
     16 N          11.8284   41.0634    4.9773 N.pl3   1  UNL1       -0.2767
     17 H          12.3693   41.5433    4.3092 H       1  UNL1        0.1555
     18 C          10.7876   40.2110    4.4892 C.ar    1  UNL1        0.1872
     19 C           9.3985   38.4984    3.5038 C.ar    1  UNL1        0.1605
     20 N           9.4688   40.4501    4.6365 N.ar    1  UNL1       -0.1253
     21 N           8.7057   39.5033    4.0917 N.ar    1  UNL1       -0.1374
     22 S          11.0552   38.7810    3.6572 S.2     1  UNL1       -0.0283
     23 C           5.4683   43.0577    9.9407 C.2     1  UNL1        0.0611
     24 C           4.9906   41.8825   10.3342 C.2     1  UNL1        0.0422
     25 C           3.7549   41.7866   11.1125 C.ar    1  UNL1        0.1457
     26 C           3.5438   40.8924   12.1373 C.ar    1  UNL1        0.0407
     27 C           2.2581   41.1581   12.5762 C.ar    1  UNL1        0.0438
     28 C           1.7764   42.1922   11.7912 C.ar    1  UNL1        0.1796
     29 O           2.7002   42.5400   10.9285 O.2     1  UNL1       -0.4504
@<TRIPOS>BOND
     1     9    10    1
     2    10    15   ar
     3    11    14   ar
     4    11    16    1
     5    18    22   ar
     6    19    22   ar
     7    12    13   ar
     8     1    13    1
     9     1     2    1
    10     2     3    1
    11     3     4    1
    12     4     7    1
    13     5     7    1
    14     5     1    1
    15     6    23    1
    16    24    25    1
    17    25    29   ar
    18    26    27   ar
    19    28    29   ar
    20    16    18    1
    21    20    21   ar
    22     7     6   am
    23    10    14   ar
    24    11    12   ar
    25    18    20   ar
    26    19    21   ar
    27    13    15   ar
    28     6     8    2
    29    23    24    2
    30    25    26   ar
    31    27    28   ar
    32    16    17    1
@<TRIPOS>MOLECULE
Molport-047-072-371 PubChem-132765989
 29 32 0 0 0
SMALL
GASTEIGER

@<TRIPOS>ATOM
      1 C          10.0949   40.3744    8.5440 C.3     1  UNL1        0.0603
      2 C          10.5581   40.8420    9.9266 C.3     1  UNL1        0.0094
      3 C          12.0720   40.6828   10.1417 C.3     1  UNL1        0.0220
      4 C          12.8210   40.2657    8.8750 C.3     1  UNL1        0.0937
      5 C          10.9006   41.0683    7.4424 C.3     1  UNL1        0.0996
      6 C          13.2433   41.7150    6.8346 C.2     1  UNL1        0.2493
      7 N          12.3390   41.0370    7.7285 N.am    1  UNL1       -0.2757
      8 O          12.8621   41.9920    5.6660 O.2     1  UNL1       -0.2699
      9 C           5.9170   39.6710    5.9998 C.3     1  UNL1        0.0737
     10 C           6.6318   40.2850    7.1487 C.ar    1  UNL1        0.1406
     11 C           6.5878   41.6387    9.0904 C.ar    1  UNL1        0.1361
     12 C           7.9528   41.4230    9.2768 C.ar    1  UNL1        0.0492
     13 C           8.6337   40.6190    8.3629 C.ar    1  UNL1        0.0644
     14 N           5.9548   41.0658    8.0305 N.ar    1  UNL1       -0.2159
     15 N           7.9616   40.0654    7.3168 N.ar    1  UNL1       -0.2348
     16 N           5.8774   42.4619   10.0216 N.pl3   1  UNL1       -0.2767
     17 H           6.3480   43.2499   10.3779 H       1  UNL1        0.1555
     18 C           4.5401   42.2345   10.4776 C.ar    1  UNL1        0.1872
     19 C           2.4929   41.5347   11.5513 C.ar    1  UNL1        0.1605
     20 N           3.4475   42.8545    9.9880 N.ar    1  UNL1       -0.1253
     21 N           2.3201   42.4660   10.5827 N.ar    1  UNL1       -0.1374
     22 S           4.1315   41.1572   11.6947 S.2     1  UNL1       -0.0283
     23 C          14.6087   42.1213    7.2179 C.2     1  UNL1        0.0611
     24 C          15.1332   43.3110    6.9466 C.2     1  UNL1        0.0422
     25 C          16.4961   43.6519    7.3564 C.ar    1  UNL1        0.1457
     26 C          17.5300   43.9185    6.4879 C.ar    1  UNL1        0.0407
     27 C          18.6149   44.1868    7.3048 C.ar    1  UNL1        0.0438
     28 C          18.1686   44.0655    8.6101 C.ar    1  UNL1        0.1796
     29 O          16.8974   43.7449    8.5990 O.2     1  UNL1       -0.4504
@<TRIPOS>BOND
     1     9    10    1
     2    10    15   ar
     3    11    14   ar
     4    11    16    1
     5    18    22   ar
     6    19    22   ar
     7    12    13   ar
     8     1    13    1
     9     1     2    1
    10     2     3    1
    11     3     4    1
    12     4     7    1
    13     5     7    1
    14     5     1    1
    15     6    23    1
    16    24    25    1
    17    25    29   ar
    18    26    27   ar
    19    28    29   ar
    20    16    18    1
    21    20    21   ar
    22     7     6   am
    23    10    14   ar
    24    11    12   ar
    25    18    20   ar
    26    19    21   ar
    27    13    15   ar
    28     6     8    2
    29    23    24    2
    30    25    26   ar
    31    27    28   ar
    32    16    17    1
@<TRIPOS>MOLECULE
Molport-047-072-371 PubChem-132765989
 29 32 0 0 0
SMALL
GASTEIGER

@<TRIPOS>ATOM
      1 C          11.6351   40.9571   10.2884 C.3     1  UNL1        0.0603
      2 C          11.3684   40.2851    8.9386 C.3     1  UNL1        0.0094
      3 C          12.6551   39.9464    8.1683 C.3     1  UNL1        0.0220
      4 C          13.9270   40.1820    8.9847 C.3     1  UNL1        0.0937
      5 C          12.5949   40.1125   11.1307 C.3     1  UNL1        0.0996
      6 C          14.7212   38.7989   10.9591 C.2     1  UNL1        0.2493
      7 N          13.7530   39.6721   10.3453 N.am    1  UNL1       -0.2757
      8 O          14.7765   38.7269   12.2159 O.2     1  UNL1       -0.2699
      9 C           9.0901   41.0862   14.5226 C.3     1  UNL1        0.0737
     10 C           9.1365   41.2597   13.0476 C.ar    1  UNL1        0.1406
     11 C           8.0370   41.8011   11.0222 C.ar    1  UNL1        0.1361
     12 C           9.2197   41.5818   10.3167 C.ar    1  UNL1        0.0492
     13 C          10.3585   41.1963   11.0237 C.ar    1  UNL1        0.0644
     14 N           8.0190   41.6356   12.3730 N.ar    1  UNL1       -0.2159
     15 N          10.2962   41.0425   12.3746 N.ar    1  UNL1       -0.2348
     16 N           6.8613   42.1973   10.3080 N.pl3   1  UNL1       -0.2767
     17 H           6.0072   42.1759   10.7972 H       1  UNL1        0.1555
     18 C           6.8244   42.6219    8.9418 C.ar    1  UNL1        0.1872
     19 C           6.8072   43.7844    6.8247 C.ar    1  UNL1        0.1605
     20 N           6.7036   41.7937    7.8847 N.ar    1  UNL1       -0.1253
     21 N           6.6945   42.4384    6.7186 N.ar    1  UNL1       -0.1374
     22 S           6.9262   44.2210    8.4505 S.2     1  UNL1       -0.0283
     23 C          15.6600   37.9612   10.1888 C.2     1  UNL1        0.0611
     24 C          15.2993   36.8880    9.4944 C.2     1  UNL1        0.0422
     25 C          16.2817   36.0994    8.7497 C.ar    1  UNL1        0.1457
     26 C          16.1133   34.7828    8.3854 C.ar    1  UNL1        0.0407
     27 C          17.2754   34.4540    7.7089 C.ar    1  UNL1        0.0438
     28 C          18.0688   35.5890    7.7077 C.ar    1  UNL1        0.1796
     29 O          17.4401   36.5505    8.3393 O.2     1  UNL1       -0.4504
@<TRIPOS>BOND
     1     9    10    1
     2    10    15   ar
     3    11    14   ar
     4    11    16    1
     5    18    22   ar
     6    19    22   ar
     7    12    13   ar
     8     1    13    1
     9     1     2    1
    10     2     3    1
    11     3     4    1
    12     4     7    1
    13     5     7    1
    14     5     1    1
    15     6    23    1
    16    24    25    1
    17    25    29   ar
    18    26    27   ar
    19    28    29   ar
    20    16    18    1
    21    20    21   ar
    22     7     6   am
    23    10    14   ar
    24    11    12   ar
    25    18    20   ar
    26    19    21   ar
    27    13    15   ar
    28     6     8    2
    29    23    24    2
    30    25    26   ar
    31    27    28   ar
    32    16    17    1
