@<TRIPOS>MOLECULE
MolPort-006-580-056 ChemDiv-V019-1727 MCULE-5973113167 PubChem-46041022 ZINC000037545351 ZINC37545351
 31 33 0 0 0
SMALL
GASTEIGER

@<TRIPOS>ATOM
      1 C          13.8247   39.9237    8.4105 C.3     1  UNL1        0.0971
      2 C          13.0792   39.0548    9.4174 C.3     1  UNL1        0.0435
      3 C          12.6499   39.9219   10.5896 C.3     1  UNL1        0.1015
      4 C          12.0485   41.6484    8.9084 C.2     1  UNL1        0.3112
      5 N          13.0341   41.0919    8.0181 N.am    1  UNL1       -0.2595
      6 N          11.7206   40.9530   10.1293 N.am    1  UNL1       -0.2430
      7 O          11.4739   42.7321    8.6136 O.2     1  UNL1       -0.2520
      8 C          10.5079   41.1988   10.8752 C.ar    1  UNL1        0.0565
      9 C          10.4801   41.0026   12.2659 C.ar    1  UNL1        0.0150
     10 C           9.3085   41.2227   12.9933 C.ar    1  UNL1        0.0026
     11 C           8.1482   41.6378   12.3375 C.ar    1  UNL1        0.0148
     12 C           8.1510   41.8334   10.9497 C.ar    1  UNL1        0.0528
     13 C           9.3292   41.6099   10.2303 C.ar    1  UNL1        0.0297
     14 C           6.9338   43.1235    9.0981 C.2     1  UNL1        0.3047
     15 N           6.9797   42.2576   10.2390 N.am    1  UNL1       -0.2683
     16 N           5.6669   43.4339    8.5153 N.am    1  UNL1       -0.2846
     17 O           7.9895   43.6157    8.6153 O.2     1  UNL1       -0.2525
     18 H           6.1166   41.9183   10.5696 H       1  UNL1        0.1564
     19 H           4.8534   43.0742    8.9373 H       1  UNL1        0.1513
     20 C           5.5271   44.2598    7.3235 C.3     1  UNL1        0.1174
     21 C           4.3151   45.1299    7.4249 C.2     1  UNL1       -0.0049
     22 C           3.2713   44.7714    8.1682 C.2     1  UNL1       -0.0032
     23 C          13.3994   41.7851    6.7877 C.3     1  UNL1        0.1240
     24 F          17.7314   42.4716    8.9454 F       1  UNL1       -0.2042
     25 F          13.8988   44.2393    5.4046 F       1  UNL1       -0.2044
     26 C          16.7856   42.9033    8.0775 C.ar    1  UNL1        0.1400
     27 C          15.6244   42.1515    7.8788 C.ar    1  UNL1        0.0293
     28 C          14.6422   42.5944    6.9843 C.ar    1  UNL1        0.0274
     29 C          14.8309   43.7967    6.2847 C.ar    1  UNL1        0.1379
     30 C          15.9941   44.5464    6.4862 C.ar    1  UNL1        0.0317
     31 C          16.9701   44.1010    7.3820 C.ar    1  UNL1        0.0319
@<TRIPOS>BOND
     1    26    24    1
     2    27    28   ar
     3    23    28    1
     4    23     5    1
     5     1     5    1
     6     1     2    1
     7     2     3    1
     8     3     6    1
     9     4     5   am
    10     9    10   ar
    11    11    12   ar
    12    12    15    1
    13    14    16   am
    14    20    16    1
    15    20    21    1
    16    13     8   ar
    17    29    25    1
    18    29    30   ar
    19    31    26   ar
    20     6     4   am
    21     6     8    1
    22    15    14   am
    23    26    27   ar
    24    28    29   ar
    25     4     7    2
    26     8     9   ar
    27    10    11   ar
    28    12    13   ar
    29    14    17    2
    30    21    22    2
    31    30    31   ar
    32    15    18    1
    33    16    19    1
@<TRIPOS>MOLECULE
MolPort-006-580-056 ChemDiv-V019-1727 MCULE-5973113167 PubChem-46041022 ZINC000037545351 ZINC37545351
 31 33 0 0 0
SMALL
GASTEIGER

@<TRIPOS>ATOM
      1 C           9.7248   40.1840    7.2780 C.3     1  UNL1        0.0971
      2 C          10.9380   39.8006    6.4379 C.3     1  UNL1        0.0435
      3 C          11.5880   41.0685    5.9088 C.3     1  UNL1        0.1015
      4 C          11.1918   42.0409    8.1596 C.2     1  UNL1        0.3112
      5 N          10.0773   41.1442    8.3257 N.am    1  UNL1       -0.2595
      6 N          12.0687   41.8820    7.0250 N.am    1  UNL1       -0.2430
      7 O          11.3991   42.9516    9.0077 O.2     1  UNL1       -0.2520
      8 C          13.3976   42.4464    6.9706 C.ar    1  UNL1        0.0565
      9 C          13.6474   43.5968    6.2041 C.ar    1  UNL1        0.0150
     10 C          14.9317   44.1406    6.1329 C.ar    1  UNL1        0.0026
     11 C          15.9836   43.5373    6.8244 C.ar    1  UNL1        0.0148
     12 C          15.7590   42.3850    7.5898 C.ar    1  UNL1        0.0528
     13 C          14.4693   41.8480    7.6543 C.ar    1  UNL1        0.0297
     14 C          16.6723   40.6824    9.2754 C.2     1  UNL1        0.3047
     15 N          16.8131   41.7349    8.3132 N.am    1  UNL1       -0.2683
     16 N          17.8442   40.1501    9.8954 N.am    1  UNL1       -0.2846
     17 O          15.5348   40.2334    9.5829 O.2     1  UNL1       -0.2525
     18 H          17.7295   42.0441    8.1293 H       1  UNL1        0.1564
     19 H          18.7169   40.5476    9.6726 H       1  UNL1        0.1513
     20 C          17.8033   39.0444   10.8429 C.3     1  UNL1        0.1174
     21 C          16.4641   38.9662   11.5037 C.2     1  UNL1       -0.0049
     22 C          15.8578   37.7970   11.6933 C.2     1  UNL1       -0.0032
     23 C           9.1633   41.2959    9.4523 C.3     1  UNL1        0.1240
     24 F           6.8252   44.3308    6.4165 F       1  UNL1       -0.2042
     25 F           6.6808   41.0730   10.8569 F       1  UNL1       -0.2044
     26 C           6.7949   43.5305    7.5087 C.ar    1  UNL1        0.1400
     27 C           7.9464   42.8444    7.9043 C.ar    1  UNL1        0.0293
     28 C           7.9213   42.0173    9.0339 C.ar    1  UNL1        0.0274
     29 C           6.7319   41.8776    9.7664 C.ar    1  UNL1        0.1379
     30 C           5.5817   42.5658    9.3677 C.ar    1  UNL1        0.0317
     31 C           5.6129   43.3919    8.2408 C.ar    1  UNL1        0.0319
@<TRIPOS>BOND
     1    26    24    1
     2    27    28   ar
     3    23    28    1
     4    23     5    1
     5     1     5    1
     6     1     2    1
     7     2     3    1
     8     3     6    1
     9     4     5   am
    10     9    10   ar
    11    11    12   ar
    12    12    15    1
    13    14    16   am
    14    20    16    1
    15    20    21    1
    16    13     8   ar
    17    29    25    1
    18    29    30   ar
    19    31    26   ar
    20     6     4   am
    21     6     8    1
    22    15    14   am
    23    26    27   ar
    24    28    29   ar
    25     4     7    2
    26     8     9   ar
    27    10    11   ar
    28    12    13   ar
    29    14    17    2
    30    21    22    2
    31    30    31   ar
    32    15    18    1
    33    16    19    1
@<TRIPOS>MOLECULE
MolPort-006-580-056 ChemDiv-V019-1727 MCULE-5973113167 PubChem-46041022 ZINC000037545351 ZINC37545351
 31 33 0 0 0
SMALL
GASTEIGER

@<TRIPOS>ATOM
      1 C          12.6469   41.5161    6.9815 C.3     1  UNL1        0.0971
      2 C          11.2596   42.1246    7.1544 C.3     1  UNL1        0.0435
      3 C          10.4313   41.2112    8.0431 C.3     1  UNL1        0.1015
      4 C          12.4707   40.9541    9.4372 C.2     1  UNL1        0.3112
      5 N          13.2732   41.2280    8.2732 N.am    1  UNL1       -0.2595
      6 N          11.0398   41.1259    9.3702 N.am    1  UNL1       -0.2430
      7 O          13.0216   40.5747   10.5068 O.2     1  UNL1       -0.2520
      8 C          10.2063   41.2617   10.5425 C.ar    1  UNL1        0.0565
      9 C          10.7284   40.9891   11.8178 C.ar    1  UNL1        0.0150
     10 C           9.9262   41.1025   12.9553 C.ar    1  UNL1        0.0026
     11 C           8.5898   41.4859   12.8307 C.ar    1  UNL1        0.0148
     12 C           8.0458   41.7563   11.5677 C.ar    1  UNL1        0.0528
     13 C           8.8573   41.6394   10.4347 C.ar    1  UNL1        0.0297
     14 C           5.9814   42.3240   10.1569 C.2     1  UNL1        0.3047
     15 N           6.6776   42.1512   11.3975 N.am    1  UNL1       -0.2683
     16 N           4.6088   42.7195   10.1828 N.am    1  UNL1       -0.2846
     17 O           6.5660   42.1410    9.0548 O.2     1  UNL1       -0.2525
     18 H           6.1626   42.3215   12.2192 H       1  UNL1        0.1564
     19 H           4.1870   42.9003   11.0538 H       1  UNL1        0.1513
     20 C           3.8065   42.8667    8.9758 C.3     1  UNL1        0.1174
     21 C           3.8132   44.2873    8.5090 C.2     1  UNL1       -0.0049
     22 C           4.6773   44.7043    7.5869 C.2     1  UNL1       -0.0032
     23 C          14.7196   41.0424    8.3077 C.3     1  UNL1        0.1240
     24 F          14.7205   45.1374    5.6386 F       1  UNL1       -0.2042
     25 F          17.4423   41.6602    8.9328 F       1  UNL1       -0.2044
     26 C          15.3863   44.2787    6.4470 C.ar    1  UNL1        0.1400
     27 C          14.7379   43.1472    6.9496 C.ar    1  UNL1        0.0293
     28 C          15.4222   42.2550    7.7841 C.ar    1  UNL1        0.0274
     29 C          16.7630   42.5040    8.1168 C.ar    1  UNL1        0.1379
     30 C          17.4086   43.6372    7.6121 C.ar    1  UNL1        0.0317
     31 C          16.7217   44.5233    6.7776 C.ar    1  UNL1        0.0319
@<TRIPOS>BOND
     1    26    24    1
     2    27    28   ar
     3    23    28    1
     4    23     5    1
     5     1     5    1
     6     1     2    1
     7     2     3    1
     8     3     6    1
     9     4     5   am
    10     9    10   ar
    11    11    12   ar
    12    12    15    1
    13    14    16   am
    14    20    16    1
    15    20    21    1
    16    13     8   ar
    17    29    25    1
    18    29    30   ar
    19    31    26   ar
    20     6     4   am
    21     6     8    1
    22    15    14   am
    23    26    27   ar
    24    28    29   ar
    25     4     7    2
    26     8     9   ar
    27    10    11   ar
    28    12    13   ar
    29    14    17    2
    30    21    22    2
    31    30    31   ar
    32    15    18    1
    33    16    19    1
@<TRIPOS>MOLECULE
MolPort-006-580-056 ChemDiv-V019-1727 MCULE-5973113167 PubChem-46041022 ZINC000037545351 ZINC37545351
 31 33 0 0 0
SMALL
GASTEIGER

@<TRIPOS>ATOM
      1 C          16.7640   38.4840   11.3938 C.3     1  UNL1        0.0971
      2 C          17.4343   39.8530   11.3594 C.3     1  UNL1        0.0435
      3 C          17.6402   40.2613    9.9099 C.3     1  UNL1        0.1015
      4 C          15.3662   39.3593    9.4813 C.2     1  UNL1        0.3112
      5 N          15.5347   38.4664   10.5985 N.am    1  UNL1       -0.2595
      6 N          16.3453   40.3918    9.2429 N.am    1  UNL1       -0.2430
      7 O          14.3636   39.2394    8.7251 O.2     1  UNL1       -0.2520
      8 C          16.0835   41.5523    8.4232 C.ar    1  UNL1        0.0565
      9 C          17.0195   42.5976    8.3563 C.ar    1  UNL1        0.0150
     10 C          16.7685   43.7303    7.5791 C.ar    1  UNL1        0.0026
     11 C          15.5752   43.8336    6.8621 C.ar    1  UNL1        0.0148
     12 C          14.6239   42.8059    6.9194 C.ar    1  UNL1        0.0528
     13 C          14.8846   41.6759    7.7010 C.ar    1  UNL1        0.0297
     14 C          12.2149   42.0798    6.4254 C.2     1  UNL1        0.3047
     15 N          13.3855   42.8748    6.1991 N.am    1  UNL1       -0.2683
     16 N          11.0642   42.2936    5.6062 N.am    1  UNL1       -0.2846
     17 O          12.1952   41.1968    7.3253 O.2     1  UNL1       -0.2525
     18 H          13.3344   43.5377    5.4731 H       1  UNL1        0.1564
     19 H          11.1189   42.9570    4.8809 H       1  UNL1        0.1513
     20 C           9.8132   41.5721    5.7981 C.3     1  UNL1        0.1174
     21 C           9.8772   40.2256    5.1507 C.2     1  UNL1       -0.0049
     22 C          10.5752   40.0316    4.0345 C.2     1  UNL1       -0.0032
     23 C          14.5708   37.4008   10.8499 C.3     1  UNL1        0.1240
     24 F          11.0015   40.7323   11.0846 F       1  UNL1       -0.2042
     25 F          12.7518   35.8199    9.3080 F       1  UNL1       -0.2044
     26 C          11.4353   39.5245   10.6518 C.ar    1  UNL1        0.1400
     27 C          12.7315   39.0982   10.9543 C.ar    1  UNL1        0.0293
     28 C          13.1844   37.8495   10.5111 C.ar    1  UNL1        0.0274
     29 C          12.3309   37.0281    9.7579 C.ar    1  UNL1        0.1379
     30 C          11.0345   37.4579    9.4572 C.ar    1  UNL1        0.0317
     31 C          10.5867   38.7041    9.9040 C.ar    1  UNL1        0.0319
@<TRIPOS>BOND
     1    26    24    1
     2    27    28   ar
     3    23    28    1
     4    23     5    1
     5     1     5    1
     6     1     2    1
     7     2     3    1
     8     3     6    1
     9     4     5   am
    10     9    10   ar
    11    11    12   ar
    12    12    15    1
    13    14    16   am
    14    20    16    1
    15    20    21    1
    16    13     8   ar
    17    29    25    1
    18    29    30   ar
    19    31    26   ar
    20     6     4   am
    21     6     8    1
    22    15    14   am
    23    26    27   ar
    24    28    29   ar
    25     4     7    2
    26     8     9   ar
    27    10    11   ar
    28    12    13   ar
    29    14    17    2
    30    21    22    2
    31    30    31   ar
    32    15    18    1
    33    16    19    1
@<TRIPOS>MOLECULE
MolPort-006-580-056 ChemDiv-V019-1727 MCULE-5973113167 PubChem-46041022 ZINC000037545351 ZINC37545351
 31 33 0 0 0
SMALL
GASTEIGER

@<TRIPOS>ATOM
      1 C           7.9180   41.9047   11.3343 C.3     1  UNL1        0.0971
      2 C           9.3650   42.2813   11.0359 C.3     1  UNL1        0.0435
      3 C          10.0154   41.1491   10.2580 C.3     1  UNL1        0.1015
      4 C           7.8931   41.0006    8.9765 C.2     1  UNL1        0.3112
      5 N           7.1946   41.5386   10.1151 N.am    1  UNL1       -0.2595
      6 N           9.3356   40.9746    8.9750 N.am    1  UNL1       -0.2430
      7 O           7.2429   40.5639    7.9875 O.2     1  UNL1       -0.2520
      8 C          10.1203   40.8329    7.7702 C.ar    1  UNL1        0.0565
      9 C           9.9577   39.7057    6.9479 C.ar    1  UNL1        0.0150
     10 C          10.7227   39.5522    5.7896 C.ar    1  UNL1        0.0026
     11 C          11.6635   40.5230    5.4417 C.ar    1  UNL1        0.0148
     12 C          11.8474   41.6525    6.2508 C.ar    1  UNL1        0.0528
     13 C          11.0768   41.7966    7.4088 C.ar    1  UNL1        0.0297
     14 C          14.1430   42.7809    6.4289 C.2     1  UNL1        0.3047
     15 N          12.8045   42.6710    5.9288 N.am    1  UNL1       -0.2683
     16 N          14.9590   43.8680    5.9893 N.am    1  UNL1       -0.2846
     17 O          14.5984   41.9407    7.2515 O.2     1  UNL1       -0.2525
     18 H          12.5113   43.3677    5.2981 H       1  UNL1        0.1564
     19 H          14.5665   44.5362    5.3821 H       1  UNL1        0.1513
     20 C          16.3469   44.0303    6.4009 C.3     1  UNL1        0.1174
     21 C          16.6332   43.2148    7.6213 C.2     1  UNL1       -0.0049
     22 C          17.5851   43.5721    8.4797 C.2     1  UNL1       -0.0032
     23 C           5.7365   41.5575   10.1512 C.3     1  UNL1        0.1240
     24 F           6.3664   44.9859    6.7244 F       1  UNL1       -0.2042
     25 F           3.0320   42.4755   10.3203 F       1  UNL1       -0.2044
     26 C           5.5509   44.3672    7.6112 C.ar    1  UNL1        0.1400
     27 C           6.0382   43.3164    8.3932 C.ar    1  UNL1        0.0293
     28 C           5.2000   42.6747    9.3132 C.ar    1  UNL1        0.0274
     29 C           3.8654   43.0899    9.4444 C.ar    1  UNL1        0.1379
     30 C           3.3813   44.1418    8.6603 C.ar    1  UNL1        0.0317
     31 C           4.2229   44.7804    7.7453 C.ar    1  UNL1        0.0319
@<TRIPOS>BOND
     1    26    24    1
     2    27    28   ar
     3    23    28    1
     4    23     5    1
     5     1     5    1
     6     1     2    1
     7     2     3    1
     8     3     6    1
     9     4     5   am
    10     9    10   ar
    11    11    12   ar
    12    12    15    1
    13    14    16   am
    14    20    16    1
    15    20    21    1
    16    13     8   ar
    17    29    25    1
    18    29    30   ar
    19    31    26   ar
    20     6     4   am
    21     6     8    1
    22    15    14   am
    23    26    27   ar
    24    28    29   ar
    25     4     7    2
    26     8     9   ar
    27    10    11   ar
    28    12    13   ar
    29    14    17    2
    30    21    22    2
    31    30    31   ar
    32    15    18    1
    33    16    19    1
@<TRIPOS>MOLECULE
MolPort-006-580-056 ChemDiv-V019-1727 MCULE-5973113167 PubChem-46041022 ZINC000037545351 ZINC37545351
 31 33 0 0 0
SMALL
GASTEIGER

@<TRIPOS>ATOM
      1 C          10.7966   37.6602    9.2772 C.3     1  UNL1        0.0971
      2 C          11.7276   36.7576   10.0792 C.3     1  UNL1        0.0435
      3 C          13.1205   36.8302    9.4752 C.3     1  UNL1        0.1015
      4 C          12.7391   39.2737    9.2459 C.2     1  UNL1        0.3112
      5 N          11.3227   39.0229    9.1767 N.am    1  UNL1       -0.2595
      6 N          13.6362   38.1946    9.5810 N.am    1  UNL1       -0.2430
      7 O          13.1851   40.4323    9.0218 O.2     1  UNL1       -0.2520
      8 C          14.9846   38.4084   10.0538 C.ar    1  UNL1        0.0565
      9 C          15.5229   37.5834   11.0551 C.ar    1  UNL1        0.0150
     10 C          16.8197   37.7920   11.5295 C.ar    1  UNL1        0.0026
     11 C          17.5930   38.8321   11.0109 C.ar    1  UNL1        0.0148
     12 C          17.0740   39.6719   10.0162 C.ar    1  UNL1        0.0528
     13 C          15.7741   39.4549    9.5482 C.ar    1  UNL1        0.0297
     14 C          17.3236   41.8909    8.7560 C.2     1  UNL1        0.3047
     15 N          17.8356   40.7520    9.4591 N.am    1  UNL1       -0.2683
     16 N          18.2394   42.8757    8.2737 N.am    1  UNL1       -0.2846
     17 O          16.0863   42.0252    8.5536 O.2     1  UNL1       -0.2525
     18 H          18.8126   40.7062    9.5715 H       1  UNL1        0.1564
     19 H          19.2037   42.7263    8.4042 H       1  UNL1        0.1513
     20 C          17.8077   44.0914    7.5970 C.3     1  UNL1        0.1174
     21 C          17.5291   43.8199    6.1531 C.2     1  UNL1       -0.0049
     22 C          16.3356   44.0750    5.6230 C.2     1  UNL1       -0.0032
     23 C          10.3957   40.0911    8.8196 C.3     1  UNL1        0.1240
     24 F           6.5406   39.1030    5.9815 F       1  UNL1       -0.2042
     25 F          11.9365   40.1286    6.4092 F       1  UNL1       -0.2044
     26 C           7.8670   39.3534    6.0916 C.ar    1  UNL1        0.1400
     27 C           8.4312   39.5908    7.3480 C.ar    1  UNL1        0.0293
     28 C           9.8024   39.8481    7.4679 C.ar    1  UNL1        0.0274
     29 C          10.6083   39.8699    6.3187 C.ar    1  UNL1        0.1379
     30 C          10.0403   39.6319    5.0632 C.ar    1  UNL1        0.0317
     31 C           8.6716   39.3732    4.9494 C.ar    1  UNL1        0.0319
@<TRIPOS>BOND
     1    26    24    1
     2    27    28   ar
     3    23    28    1
     4    23     5    1
     5     1     5    1
     6     1     2    1
     7     2     3    1
     8     3     6    1
     9     4     5   am
    10     9    10   ar
    11    11    12   ar
    12    12    15    1
    13    14    16   am
    14    20    16    1
    15    20    21    1
    16    13     8   ar
    17    29    25    1
    18    29    30   ar
    19    31    26   ar
    20     6     4   am
    21     6     8    1
    22    15    14   am
    23    26    27   ar
    24    28    29   ar
    25     4     7    2
    26     8     9   ar
    27    10    11   ar
    28    12    13   ar
    29    14    17    2
    30    21    22    2
    31    30    31   ar
    32    15    18    1
    33    16    19    1
@<TRIPOS>MOLECULE
MolPort-006-580-056 ChemDiv-V019-1727 MCULE-5973113167 PubChem-46041022 ZINC000037545351 ZINC37545351
 31 33 0 0 0
SMALL
GASTEIGER

@<TRIPOS>ATOM
      1 C          14.4219   40.3729    8.6186 C.3     1  UNL1        0.0971
      2 C          13.9449   41.6504    7.9367 C.3     1  UNL1        0.0435
      3 C          12.4441   41.5564    7.7151 C.3     1  UNL1        0.1015
      4 C          12.3127   40.5748    9.9928 C.2     1  UNL1        0.3112
      5 N          13.6637   40.0999    9.8412 N.am    1  UNL1       -0.2595
      6 N          11.7575   41.4659    9.0031 N.am    1  UNL1       -0.2430
      7 O          11.6276   40.2171   10.9898 O.2     1  UNL1       -0.2520
      8 C          10.5980   42.2922    9.2483 C.ar    1  UNL1        0.0565
      9 C          10.7319   43.5187    9.9198 C.ar    1  UNL1        0.0150
     10 C           9.6148   44.3170   10.1751 C.ar    1  UNL1        0.0026
     11 C           8.3485   43.8958    9.7655 C.ar    1  UNL1        0.0148
     12 C           8.1904   42.6726    9.0999 C.ar    1  UNL1        0.0528
     13 C           9.3152   41.8803    8.8494 C.ar    1  UNL1        0.0297
     14 C           5.8955   41.5923    9.4752 C.2     1  UNL1        0.3047
     15 N           6.9067   42.2040    8.6646 N.am    1  UNL1       -0.2683
     16 N           4.6679   41.1909    8.8645 N.am    1  UNL1       -0.2846
     17 O           6.0816   41.3992   10.7073 O.2     1  UNL1       -0.2525
     18 H           6.6983   42.3140    7.7088 H       1  UNL1        0.1564
     19 H           4.5638   41.3108    7.8929 H       1  UNL1        0.1513
     20 C           3.5636   40.6118    9.6177 C.3     1  UNL1        0.1174
     21 C           2.6498   41.6835   10.1204 C.2     1  UNL1       -0.0049
     22 C           2.7772   42.1749   11.3505 C.2     1  UNL1       -0.0032
     23 C          14.2422   39.1818   10.8160 C.3     1  UNL1        0.1240
     24 F          11.4352   35.1843   11.0010 F       1  UNL1       -0.2042
     25 F          15.9951   37.6576    9.1458 F       1  UNL1       -0.2044
     26 C          12.5560   35.7957   10.5490 C.ar    1  UNL1        0.1400
     27 C          12.8143   37.1251   10.8942 C.ar    1  UNL1        0.0293
     28 C          13.9726   37.7614   10.4314 C.ar    1  UNL1        0.0274
     29 C          14.8728   37.0583    9.6154 C.ar    1  UNL1        0.1379
     30 C          14.6112   35.7281    9.2721 C.ar    1  UNL1        0.0317
     31 C          13.4547   35.0970    9.7388 C.ar    1  UNL1        0.0319
@<TRIPOS>BOND
     1    26    24    1
     2    27    28   ar
     3    23    28    1
     4    23     5    1
     5     1     5    1
     6     1     2    1
     7     2     3    1
     8     3     6    1
     9     4     5   am
    10     9    10   ar
    11    11    12   ar
    12    12    15    1
    13    14    16   am
    14    20    16    1
    15    20    21    1
    16    13     8   ar
    17    29    25    1
    18    29    30   ar
    19    31    26   ar
    20     6     4   am
    21     6     8    1
    22    15    14   am
    23    26    27   ar
    24    28    29   ar
    25     4     7    2
    26     8     9   ar
    27    10    11   ar
    28    12    13   ar
    29    14    17    2
    30    21    22    2
    31    30    31   ar
    32    15    18    1
    33    16    19    1
@<TRIPOS>MOLECULE
MolPort-006-580-056 ChemDiv-V019-1727 MCULE-5973113167 PubChem-46041022 ZINC000037545351 ZINC37545351
 31 33 0 0 0
SMALL
GASTEIGER

@<TRIPOS>ATOM
      1 C           7.9882   41.9894   11.3035 C.3     1  UNL1        0.0971
      2 C           9.3579   41.7096   11.9122 C.3     1  UNL1        0.0435
      3 C          10.1196   40.7690   10.9928 C.3     1  UNL1        0.1015
      4 C           9.2293   42.1192    9.1079 C.2     1  UNL1        0.3112
      5 N           8.1001   42.4763    9.9272 N.am    1  UNL1       -0.2595
      6 N          10.3398   41.4119    9.6979 N.am    1  UNL1       -0.2430
      7 O           9.2448   42.4323    7.8859 O.2     1  UNL1       -0.2520
      8 C          11.6501   41.3558    9.0919 C.ar    1  UNL1        0.0565
      9 C          12.0393   42.3276    8.1552 C.ar    1  UNL1        0.0150
     10 C          13.2978   42.2728    7.5525 C.ar    1  UNL1        0.0026
     11 C          14.1817   41.2420    7.8763 C.ar    1  UNL1        0.0148
     12 C          13.8121   40.2577    8.8031 C.ar    1  UNL1        0.0528
     13 C          12.5494   40.3213    9.4007 C.ar    1  UNL1        0.0297
     14 C          16.0531   39.2925    9.5911 C.2     1  UNL1        0.3047
     15 N          14.6906   39.1820    9.1611 N.am    1  UNL1       -0.2683
     16 N          16.7760   38.1030    9.9127 N.am    1  UNL1       -0.2846
     17 O          16.6159   40.4175    9.6782 O.2     1  UNL1       -0.2525
     18 H          14.3185   38.2722    9.1057 H       1  UNL1        0.1564
     19 H          16.3296   37.2337    9.7936 H       1  UNL1        0.1513
     20 C          18.1454   38.1212   10.4093 C.3     1  UNL1        0.1174
     21 C          18.7544   36.7580   10.3247 C.2     1  UNL1       -0.0049
     22 C          19.2177   36.1431   11.4100 C.2     1  UNL1       -0.0032
     23 C           6.9552   43.1730    9.3513 C.3     1  UNL1        0.1240
     24 F           4.5284   39.7282   11.8287 F       1  UNL1       -0.2042
     25 F           4.4330   43.8652    8.1917 F       1  UNL1       -0.2044
     26 C           4.5100   40.7444   10.9336 C.ar    1  UNL1        0.1400
     27 C           5.6931   41.4172   10.6160 C.ar    1  UNL1        0.0293
     28 C           5.6802   42.4672    9.6896 C.ar    1  UNL1        0.0274
     29 C           4.4716   42.8437    9.0829 C.ar    1  UNL1        0.1379
     30 C           3.2898   42.1681    9.4030 C.ar    1  UNL1        0.0317
     31 C           3.3086   41.1193   10.3265 C.ar    1  UNL1        0.0319
@<TRIPOS>BOND
     1    26    24    1
     2    27    28   ar
     3    23    28    1
     4    23     5    1
     5     1     5    1
     6     1     2    1
     7     2     3    1
     8     3     6    1
     9     4     5   am
    10     9    10   ar
    11    11    12   ar
    12    12    15    1
    13    14    16   am
    14    20    16    1
    15    20    21    1
    16    13     8   ar
    17    29    25    1
    18    29    30   ar
    19    31    26   ar
    20     6     4   am
    21     6     8    1
    22    15    14   am
    23    26    27   ar
    24    28    29   ar
    25     4     7    2
    26     8     9   ar
    27    10    11   ar
    28    12    13   ar
    29    14    17    2
    30    21    22    2
    31    30    31   ar
    32    15    18    1
    33    16    19    1
@<TRIPOS>MOLECULE
MolPort-006-580-056 ChemDiv-V019-1727 MCULE-5973113167 PubChem-46041022 ZINC000037545351 ZINC37545351
 31 33 0 0 0
SMALL
GASTEIGER

@<TRIPOS>ATOM
      1 C          10.4142   38.0321    8.6199 C.3     1  UNL1        0.0971
      2 C          11.1042   37.2841    9.7554 C.3     1  UNL1        0.0435
      3 C          12.5715   37.1033    9.4025 C.3     1  UNL1        0.1015
      4 C          12.5102   39.4395    8.5614 C.2     1  UNL1        0.3112
      5 N          11.1014   39.2863    8.3057 N.am    1  UNL1       -0.2595
      6 N          13.2174   38.4100    9.2837 N.am    1  UNL1       -0.2430
      7 O          13.1142   40.4722    8.1612 O.2     1  UNL1       -0.2520
      8 C          14.4942   38.6306    9.9228 C.ar    1  UNL1        0.0565
      9 C          14.8690   37.8647   11.0391 C.ar    1  UNL1        0.0150
     10 C          16.0944   38.0811   11.6729 C.ar    1  UNL1        0.0026
     11 C          16.9588   39.0701   11.2004 C.ar    1  UNL1        0.0148
     12 C          16.6027   39.8509   10.0922 C.ar    1  UNL1        0.0528
     13 C          15.3732   39.6266    9.4648 C.ar    1  UNL1        0.0297
     14 C          17.1310   41.8566    8.5848 C.2     1  UNL1        0.3047
     15 N          17.4618   40.8775    9.5775 N.am    1  UNL1       -0.2683
     16 N          18.1209   42.8109    8.1971 N.am    1  UNL1       -0.2846
     17 O          15.9893   41.8771    8.0501 O.2     1  UNL1       -0.2525
     18 H          18.3746   40.9132    9.9446 H       1  UNL1        0.1564
     19 H          19.0189   42.7466    8.5955 H       1  UNL1        0.1513
     20 C          17.8587   43.8751    7.2374 C.3     1  UNL1        0.1174
     21 C          16.4194   44.2787    7.2787 C.2     1  UNL1       -0.0049
     22 C          15.8233   44.8103    6.2145 C.2     1  UNL1       -0.0032
     23 C          10.3670   40.3021    7.5597 C.3     1  UNL1        0.1240
     24 F           5.5576   40.9158    8.1814 F       1  UNL1       -0.2042
     25 F          10.6854   41.6908   10.0407 F       1  UNL1       -0.2044
     26 C           6.8200   41.1059    8.6336 C.ar    1  UNL1        0.1400
     27 C           7.9057   40.6215    7.8988 C.ar    1  UNL1        0.0293
     28 C           9.2131   40.8171    8.3605 C.ar    1  UNL1        0.0274
     29 C           9.4286   41.4999    9.5679 C.ar    1  UNL1        0.1379
     30 C           8.3399   41.9833   10.3005 C.ar    1  UNL1        0.0317
     31 C           7.0372   41.7874    9.8339 C.ar    1  UNL1        0.0319
@<TRIPOS>BOND
     1    26    24    1
     2    27    28   ar
     3    23    28    1
     4    23     5    1
     5     1     5    1
     6     1     2    1
     7     2     3    1
     8     3     6    1
     9     4     5   am
    10     9    10   ar
    11    11    12   ar
    12    12    15    1
    13    14    16   am
    14    20    16    1
    15    20    21    1
    16    13     8   ar
    17    29    25    1
    18    29    30   ar
    19    31    26   ar
    20     6     4   am
    21     6     8    1
    22    15    14   am
    23    26    27   ar
    24    28    29   ar
    25     4     7    2
    26     8     9   ar
    27    10    11   ar
    28    12    13   ar
    29    14    17    2
    30    21    22    2
    31    30    31   ar
    32    15    18    1
    33    16    19    1
@<TRIPOS>MOLECULE
MolPort-006-580-056 ChemDiv-V019-1727 MCULE-5973113167 PubChem-46041022 ZINC000037545351 ZINC37545351
 31 33 0 0 0
SMALL
GASTEIGER

@<TRIPOS>ATOM
      1 C          13.5891   36.7131   11.0242 C.3     1  UNL1        0.0971
      2 C          12.8724   36.2889    9.7471 C.3     1  UNL1        0.0435
      3 C          11.6419   37.1619    9.5629 C.3     1  UNL1        0.1015
      4 C          13.0619   39.0685   10.2817 C.2     1  UNL1        0.3112
      5 N          13.8814   38.1478   11.0264 N.am    1  UNL1       -0.2595
      6 N          12.0449   38.5576    9.3951 N.am    1  UNL1       -0.2430
      7 O          13.2423   40.3113   10.4021 O.2     1  UNL1       -0.2520
      8 C          11.4543   39.3440    8.3367 C.ar    1  UNL1        0.0565
      9 C          10.0807   39.2419    8.0609 C.ar    1  UNL1        0.0150
     10 C           9.5036   39.9863    7.0298 C.ar    1  UNL1        0.0026
     11 C          10.2948   40.8391    6.2583 C.ar    1  UNL1        0.0148
     12 C          11.6688   40.9518    6.5112 C.ar    1  UNL1        0.0528
     13 C          12.2371   40.2018    7.5457 C.ar    1  UNL1        0.0297
     14 C          13.2632   42.9389    6.2224 C.2     1  UNL1        0.3047
     15 N          12.5157   41.8152    5.7404 N.am    1  UNL1       -0.2683
     16 N          14.0622   43.6846    5.3023 N.am    1  UNL1       -0.2846
     17 O          13.2150   43.2768    7.4362 O.2     1  UNL1       -0.2525
     18 H          12.5916   41.6150    4.7795 H       1  UNL1        0.1564
     19 H          14.0482   43.4292    4.3516 H       1  UNL1        0.1513
     20 C          14.8968   44.8068    5.7104 C.3     1  UNL1        0.1174
     21 C          16.1396   44.3207    6.3852 C.2     1  UNL1       -0.0049
     22 C          17.1982   43.9313    5.6791 C.2     1  UNL1       -0.0032
     23 C          14.9026   38.6380   11.9454 C.3     1  UNL1        0.1240
     24 F          19.0539   36.1266   11.3508 F       1  UNL1       -0.2042
     25 F          16.0535   40.6057   10.2165 F       1  UNL1       -0.2044
     26 C          18.3135   37.2270   11.0764 C.ar    1  UNL1        0.1400
     27 C          17.0349   37.3632   11.6239 C.ar    1  UNL1        0.0293
     28 C          16.2660   38.4999   11.3453 C.ar    1  UNL1        0.0274
     29 C          16.7845   39.5018   10.5098 C.ar    1  UNL1        0.1379
     30 C          18.0644   39.3621    9.9638 C.ar    1  UNL1        0.0317
     31 C          18.8285   38.2267   10.2472 C.ar    1  UNL1        0.0319
@<TRIPOS>BOND
     1    26    24    1
     2    27    28   ar
     3    23    28    1
     4    23     5    1
     5     1     5    1
     6     1     2    1
     7     2     3    1
     8     3     6    1
     9     4     5   am
    10     9    10   ar
    11    11    12   ar
    12    12    15    1
    13    14    16   am
    14    20    16    1
    15    20    21    1
    16    13     8   ar
    17    29    25    1
    18    29    30   ar
    19    31    26   ar
    20     6     4   am
    21     6     8    1
    22    15    14   am
    23    26    27   ar
    24    28    29   ar
    25     4     7    2
    26     8     9   ar
    27    10    11   ar
    28    12    13   ar
    29    14    17    2
    30    21    22    2
    31    30    31   ar
    32    15    18    1
    33    16    19    1
