@<TRIPOS>MOLECULE
MolPort-051-666-749 MCULE-8495745083 PubChem-110095884
 24 26 0 0 0
SMALL
GASTEIGER

@<TRIPOS>ATOM
      1 C          12.3494   39.7223    8.2680 C.ar    1  UNL1        0.0805
      2 C          11.0475   39.2576    8.0427 C.ar    1  UNL1        0.1137
      3 C          10.7685   40.8458    6.3122 C.ar    1  UNL1        0.1332
      4 C          12.0662   41.3220    6.5308 C.ar    1  UNL1        0.1522
      5 N          10.2893   39.8262    7.0704 N.ar    1  UNL1       -0.2382
      6 N          12.8197   40.7459    7.5046 N.ar    1  UNL1       -0.2317
      7 C          13.8028   38.9846   11.7967 C.3     1  UNL1        0.0178
      8 C          12.8305   39.5521   10.7611 C.3     1  UNL1        0.0088
      9 C          13.2324   39.1407    9.3377 C.3     1  UNL1        0.0579
     10 C          14.7117   39.4478    9.0364 C.3     1  UNL1        0.0781
     11 C          15.2542   38.9939   11.3042 C.3     1  UNL1        0.0722
     12 N          15.4334   39.9470   10.2095 N.3     1  UNL1       -0.2702
     13 C          16.8448   39.9443    9.8609 C.3     1  UNL1        0.1042
     14 C          17.6464   39.2042   10.9177 C.3     1  UNL1        0.1544
     15 O          19.0122   39.3750   10.6855 O.3     1  UNL1       -0.3805
     16 H          19.2382   39.0212    9.8111 H       1  UNL1        0.2105
     17 N          12.6123   42.4130    5.7776 N.pl3   1  UNL1       -0.2809
     18 H          12.1215   42.6758    4.9656 H       1  UNL1        0.1551
     19 C          13.7964   43.1619    6.0802 C.ar    1  UNL1        0.1526
     20 C          15.1229   45.1160    5.8582 C.ar    1  UNL1        0.1210
     21 C          16.1088   44.5386    6.6606 C.ar    1  UNL1        0.1196
     22 C          14.7909   42.5818    6.8707 C.ar    1  UNL1        0.1332
     23 N          13.9897   44.4166    5.5871 N.ar    1  UNL1       -0.2258
     24 N          15.9222   43.2835    7.1480 N.ar    1  UNL1       -0.2378
@<TRIPOS>BOND
     1     7     8    1
     2     8     9    1
     3     9    10    1
     4     9     1    1
     5    10    12    1
     6    11    12    1
     7    11     7    1
     8    13    12    1
     9    13    14    1
    10    14    15    1
    11     1     6   ar
    12     2     5   ar
    13     3     4   ar
    14     4    17    1
    15    20    23   ar
    16    21    24   ar
    17    22    19   ar
    18    17    19    1
    19     1     2   ar
    20     3     5   ar
    21     4     6   ar
    22    19    23   ar
    23    20    21   ar
    24    22    24   ar
    25    17    18    1
    26    15    16    1
@<TRIPOS>MOLECULE
MolPort-051-666-749 MCULE-8495745083 PubChem-110095884
 24 26 0 0 0
SMALL
GASTEIGER

@<TRIPOS>ATOM
      1 C          11.3543   40.2204    8.7079 C.ar    1  UNL1        0.0805
      2 C           9.9733   40.4365    8.6186 C.ar    1  UNL1        0.1137
      3 C          10.2934   41.7483    6.6766 C.ar    1  UNL1        0.1332
      4 C          11.6754   41.5434    6.7577 C.ar    1  UNL1        0.1522
      5 N           9.4749   41.1912    7.6059 N.ar    1  UNL1       -0.2382
      6 N          12.1664   40.7848    7.7733 N.ar    1  UNL1       -0.2317
      7 C          13.7937   39.1692   11.5456 C.3     1  UNL1        0.0178
      8 C          13.1767   40.0745   10.4780 C.3     1  UNL1        0.0088
      9 C          11.9664   39.4040    9.8130 C.3     1  UNL1        0.0579
     10 C          12.2870   37.9822    9.3138 C.3     1  UNL1        0.0781
     11 C          13.7768   37.6910   11.1410 C.3     1  UNL1        0.0722
     12 N          13.6318   37.5422    9.6934 N.3     1  UNL1       -0.2702
     13 C          13.7030   36.1209    9.3958 C.3     1  UNL1        0.1042
     14 C          14.9448   35.8166    8.5758 C.3     1  UNL1        0.1544
     15 O          15.8136   35.0075    9.3100 O.3     1  UNL1       -0.3805
     16 H          16.0755   35.4681   10.1225 H       1  UNL1        0.2105
     17 N          12.5870   42.1297    5.8190 N.pl3   1  UNL1       -0.2809
     18 H          12.4188   41.9424    4.8672 H       1  UNL1        0.1551
     19 C          13.7170   42.9593    6.1180 C.ar    1  UNL1        0.1526
     20 C          14.9274   44.9823    5.8537 C.ar    1  UNL1        0.1210
     21 C          15.9292   44.4933    6.6941 C.ar    1  UNL1        0.1196
     22 C          14.7279   42.4678    6.9468 C.ar    1  UNL1        0.1332
     23 N          13.8445   44.2063    5.5855 N.ar    1  UNL1       -0.2258
     24 N          15.8086   43.2461    7.2211 N.ar    1  UNL1       -0.2378
@<TRIPOS>BOND
     1     7     8    1
     2     8     9    1
     3     9    10    1
     4     9     1    1
     5    10    12    1
     6    11    12    1
     7    11     7    1
     8    13    12    1
     9    13    14    1
    10    14    15    1
    11     1     6   ar
    12     2     5   ar
    13     3     4   ar
    14     4    17    1
    15    20    23   ar
    16    21    24   ar
    17    22    19   ar
    18    17    19    1
    19     1     2   ar
    20     3     5   ar
    21     4     6   ar
    22    19    23   ar
    23    20    21   ar
    24    22    24   ar
    25    17    18    1
    26    15    16    1
@<TRIPOS>MOLECULE
MolPort-051-666-749 MCULE-8495745083 PubChem-110095884
 24 26 0 0 0
SMALL
GASTEIGER

@<TRIPOS>ATOM
      1 C          10.9940   41.4944    9.5082 C.ar    1  UNL1        0.0805
      2 C          11.6942   40.7359   10.4549 C.ar    1  UNL1        0.1137
      3 C          13.5797   40.6758    9.0279 C.ar    1  UNL1        0.1332
      4 C          12.8889   41.4294    8.0722 C.ar    1  UNL1        0.1522
      5 N          12.9690   40.3472   10.1955 N.ar    1  UNL1       -0.2382
      6 N          11.6137   41.8167    8.3404 N.ar    1  UNL1       -0.2317
      7 C           7.5019   41.8527   11.1771 C.3     1  UNL1        0.0178
      8 C           8.9616   41.4171   11.0376 C.3     1  UNL1        0.0088
      9 C           9.5765   41.9440    9.7334 C.3     1  UNL1        0.0579
     10 C           8.7087   41.6153    8.5036 C.3     1  UNL1        0.0781
     11 C           6.7562   41.8390    9.8381 C.3     1  UNL1        0.0722
     12 N           7.4363   40.9854    8.8646 N.3     1  UNL1       -0.2702
     13 C           6.6232   40.9716    7.6594 C.3     1  UNL1        0.1042
     14 C           6.9525   42.1719    6.7888 C.3     1  UNL1        0.1544
     15 O           6.6647   41.8846    5.4535 O.3     1  UNL1       -0.3805
     16 H           7.1972   41.1274    5.1636 H       1  UNL1        0.2105
     17 N          13.4762   41.7814    6.8124 N.pl3   1  UNL1       -0.2809
     18 H          13.2140   41.2344    6.0370 H       1  UNL1        0.1551
     19 C          14.4043   42.8444    6.5611 C.ar    1  UNL1        0.1526
     20 C          16.4202   43.9927    7.0564 C.ar    1  UNL1        0.1210
     21 C          16.1309   44.9301    6.0630 C.ar    1  UNL1        0.1196
     22 C          14.1111   43.7920    5.5779 C.ar    1  UNL1        0.1332
     23 N          15.5526   42.9714    7.2824 N.ar    1  UNL1       -0.2258
     24 N          14.9820   44.8104    5.3465 N.ar    1  UNL1       -0.2378
@<TRIPOS>BOND
     1     7     8    1
     2     8     9    1
     3     9    10    1
     4     9     1    1
     5    10    12    1
     6    11    12    1
     7    11     7    1
     8    13    12    1
     9    13    14    1
    10    14    15    1
    11     1     6   ar
    12     2     5   ar
    13     3     4   ar
    14     4    17    1
    15    20    23   ar
    16    21    24   ar
    17    22    19   ar
    18    17    19    1
    19     1     2   ar
    20     3     5   ar
    21     4     6   ar
    22    19    23   ar
    23    20    21   ar
    24    22    24   ar
    25    17    18    1
    26    15    16    1
@<TRIPOS>MOLECULE
MolPort-051-666-749 MCULE-8495745083 PubChem-110095884
 24 26 0 0 0
SMALL
GASTEIGER

@<TRIPOS>ATOM
      1 C          12.1911   40.2473    8.1980 C.ar    1  UNL1        0.0805
      2 C          10.9886   39.7488    7.6810 C.ar    1  UNL1        0.1137
      3 C          11.1214   41.2711    5.8755 C.ar    1  UNL1        0.1332
      4 C          12.3213   41.7807    6.3845 C.ar    1  UNL1        0.1522
      5 N          10.4835   40.2685    6.5328 N.ar    1  UNL1       -0.2382
      6 N          12.8215   41.2536    7.5334 N.ar    1  UNL1       -0.2317
      7 C          14.8605   39.4009   10.8936 C.3     1  UNL1        0.0178
      8 C          14.2931   40.0173    9.6137 C.3     1  UNL1        0.0088
      9 C          12.7937   39.7205    9.4715 C.3     1  UNL1        0.0579
     10 C          12.4766   38.2217    9.6339 C.3     1  UNL1        0.0781
     11 C          14.2480   38.0308   11.2052 C.3     1  UNL1        0.0722
     12 N          13.6538   37.4346   10.0092 N.3     1  UNL1       -0.2702
     13 C          13.1700   36.1145   10.3792 C.3     1  UNL1        0.1042
     14 C          11.6624   36.1391   10.5627 C.3     1  UNL1        0.1544
     15 O          11.2616   35.0614   11.3543 O.3     1  UNL1       -0.3805
     16 H          11.5146   34.2309   10.9217 H       1  UNL1        0.2105
     17 N          13.0220   42.8562    5.7456 N.pl3   1  UNL1       -0.2809
     18 H          12.5654   43.2901    4.9889 H       1  UNL1        0.1551
     19 C          14.3160   43.3671    6.0905 C.ar    1  UNL1        0.1526
     20 C          16.3807   43.1681    7.2416 C.ar    1  UNL1        0.1210
     21 C          16.7735   44.4158    6.7537 C.ar    1  UNL1        0.1196
     22 C          14.7064   44.6213    5.6160 C.ar    1  UNL1        0.1332
     23 N          15.1630   42.6714    6.8988 N.ar    1  UNL1       -0.2258
     24 N          15.9273   45.1161    5.9530 N.ar    1  UNL1       -0.2378
@<TRIPOS>BOND
     1     7     8    1
     2     8     9    1
     3     9    10    1
     4     9     1    1
     5    10    12    1
     6    11    12    1
     7    11     7    1
     8    13    12    1
     9    13    14    1
    10    14    15    1
    11     1     6   ar
    12     2     5   ar
    13     3     4   ar
    14     4    17    1
    15    20    23   ar
    16    21    24   ar
    17    22    19   ar
    18    17    19    1
    19     1     2   ar
    20     3     5   ar
    21     4     6   ar
    22    19    23   ar
    23    20    21   ar
    24    22    24   ar
    25    17    18    1
    26    15    16    1
@<TRIPOS>MOLECULE
MolPort-051-666-749 MCULE-8495745083 PubChem-110095884
 24 26 0 0 0
SMALL
GASTEIGER

@<TRIPOS>ATOM
      1 C           9.1980   41.8489    7.9067 C.ar    1  UNL1        0.0805
      2 C           9.5075   40.9213    8.9095 C.ar    1  UNL1        0.1137
      3 C          11.6995   40.7046    8.0475 C.ar    1  UNL1        0.1332
      4 C          11.4010   41.6267    7.0380 C.ar    1  UNL1        0.1522
      5 N          10.7489   40.3737    8.9591 N.ar    1  UNL1       -0.2382
      6 N          10.1565   42.1722    6.9965 N.ar    1  UNL1       -0.2317
      7 C           6.2955   44.3802    8.4319 C.3     1  UNL1        0.0178
      8 C           7.7165   43.8223    8.5284 C.3     1  UNL1        0.0088
      9 C           7.8375   42.4801    7.7931 C.3     1  UNL1        0.0579
     10 C           6.7460   41.4799    8.2191 C.3     1  UNL1        0.0781
     11 C           5.2285   43.2832    8.5172 C.3     1  UNL1        0.0722
     12 N           5.7666   42.0713    9.1341 N.3     1  UNL1       -0.2702
     13 C           4.6728   41.1197    9.2431 C.3     1  UNL1        0.1042
     14 C           3.3431   41.8513    9.3045 C.3     1  UNL1        0.1544
     15 O           2.3526   41.0919    8.6794 O.3     1  UNL1       -0.3805
     16 H           2.5929   40.9488    7.7506 H       1  UNL1        0.2105
     17 N          12.3582   41.9916    6.0348 N.pl3   1  UNL1       -0.2809
     18 H          12.2070   41.6312    5.1312 H       1  UNL1        0.1551
     19 C          13.5116   42.8251    6.2066 C.ar    1  UNL1        0.1526
     20 C          14.7062   44.8246    5.7568 C.ar    1  UNL1        0.1210
     21 C          15.7687   44.3662    6.5380 C.ar    1  UNL1        0.1196
     22 C          14.5822   42.3635    6.9756 C.ar    1  UNL1        0.1332
     23 N          13.6023   44.0458    5.6095 N.ar    1  UNL1       -0.2258
     24 N          15.6844   43.1450    7.1290 N.ar    1  UNL1       -0.2378
@<TRIPOS>BOND
     1     7     8    1
     2     8     9    1
     3     9    10    1
     4     9     1    1
     5    10    12    1
     6    11    12    1
     7    11     7    1
     8    13    12    1
     9    13    14    1
    10    14    15    1
    11     1     6   ar
    12     2     5   ar
    13     3     4   ar
    14     4    17    1
    15    20    23   ar
    16    21    24   ar
    17    22    19   ar
    18    17    19    1
    19     1     2   ar
    20     3     5   ar
    21     4     6   ar
    22    19    23   ar
    23    20    21   ar
    24    22    24   ar
    25    17    18    1
    26    15    16    1
@<TRIPOS>MOLECULE
MolPort-051-666-749 MCULE-8495745083 PubChem-110095884
 24 26 0 0 0
SMALL
GASTEIGER

@<TRIPOS>ATOM
      1 C           9.4375   41.6984    7.3911 C.ar    1  UNL1        0.0805
      2 C           8.9332   41.3100    6.1435 C.ar    1  UNL1        0.1137
      3 C          11.1351   40.9862    5.3422 C.ar    1  UNL1        0.1332
      4 C          11.6513   41.3769    6.5830 C.ar    1  UNL1        0.1522
      5 N           9.7909   40.9606    5.1506 N.ar    1  UNL1       -0.2382
      6 N          10.7859   41.7230    7.5726 N.ar    1  UNL1       -0.2317
      7 C           7.9400   41.8898   10.9728 C.3     1  UNL1        0.0178
      8 C           8.9280   41.4901    9.8756 C.3     1  UNL1        0.0088
      9 C           8.5383   42.1075    8.5252 C.3     1  UNL1        0.0579
     10 C           7.0649   41.8397    8.1636 C.3     1  UNL1        0.0781
     11 C           6.4942   41.9452   10.4672 C.3     1  UNL1        0.0722
     12 N           6.3346   41.1658    9.2401 N.3     1  UNL1       -0.2702
     13 C           4.9270   41.2118    8.8790 C.3     1  UNL1        0.1042
     14 C           4.2446   42.3800    9.5694 C.3     1  UNL1        0.1544
     15 O           3.2293   42.8864    8.7562 O.3     1  UNL1       -0.3805
     16 H           3.6088   43.1919    7.9175 H       1  UNL1        0.2105
     17 N          13.0617   41.4472    6.8313 N.pl3   1  UNL1       -0.2809
     18 H          13.4827   40.6402    7.2065 H       1  UNL1        0.1551
     19 C          13.9243   42.5666    6.5917 C.ar    1  UNL1        0.1526
     20 C          15.9824   43.7007    6.9164 C.ar    1  UNL1        0.1210
     21 C          15.5228   44.7603    6.1320 C.ar    1  UNL1        0.1196
     22 C          13.4624   43.6347    5.8194 C.ar    1  UNL1        0.1332
     23 N          15.1748   42.6284    7.1276 N.ar    1  UNL1       -0.2258
     24 N          14.2724   44.7052    5.6020 N.ar    1  UNL1       -0.2378
@<TRIPOS>BOND
     1     7     8    1
     2     8     9    1
     3     9    10    1
     4     9     1    1
     5    10    12    1
     6    11    12    1
     7    11     7    1
     8    13    12    1
     9    13    14    1
    10    14    15    1
    11     1     6   ar
    12     2     5   ar
    13     3     4   ar
    14     4    17    1
    15    20    23   ar
    16    21    24   ar
    17    22    19   ar
    18    17    19    1
    19     1     2   ar
    20     3     5   ar
    21     4     6   ar
    22    19    23   ar
    23    20    21   ar
    24    22    24   ar
    25    17    18    1
    26    15    16    1
@<TRIPOS>MOLECULE
MolPort-051-666-749 MCULE-8495745083 PubChem-110095884
 24 26 0 0 0
SMALL
GASTEIGER

@<TRIPOS>ATOM
      1 C          10.9520   41.3446    8.5172 C.ar    1  UNL1        0.0805
      2 C          11.2311   40.7753    9.7661 C.ar    1  UNL1        0.1137
      3 C          13.5497   40.8920    9.3131 C.ar    1  UNL1        0.1332
      4 C          13.2836   41.4572    8.0609 C.ar    1  UNL1        0.1522
      5 N          12.5204   40.5651   10.1363 N.ar    1  UNL1       -0.2382
      6 N          11.9902   41.6666    7.6985 N.ar    1  UNL1       -0.2317
      7 C           7.0727   41.5787    8.5805 C.3     1  UNL1        0.0178
      8 C           8.4838   41.3786    9.1359 C.3     1  UNL1        0.0088
      9 C           9.5447   41.5907    8.0467 C.3     1  UNL1        0.0579
     10 C           9.2526   40.7670    6.7781 C.3     1  UNL1        0.0781
     11 C           6.9228   41.0392    7.1538 C.3     1  UNL1        0.0722
     12 N           7.9688   40.0645    6.8461 N.3     1  UNL1       -0.2702
     13 C           7.7039   39.5533    5.5111 C.3     1  UNL1        0.1042
     14 C           9.0090   39.2597    4.7917 C.3     1  UNL1        0.1544
     15 O           8.8767   39.5426    3.4311 O.3     1  UNL1       -0.3805
     16 H           8.1751   38.9899    3.0527 H       1  UNL1        0.2105
     17 N          14.3307   41.7966    7.1421 N.pl3   1  UNL1       -0.2809
     18 H          14.2201   41.4848    6.2149 H       1  UNL1        0.1551
     19 C          15.5215   42.5411    7.4292 C.ar    1  UNL1        0.1526
     20 C          16.9069   44.4381    7.0984 C.ar    1  UNL1        0.1210
     21 C          17.8451   43.9084    7.9865 C.ar    1  UNL1        0.1196
     22 C          16.4686   42.0076    8.3060 C.ar    1  UNL1        0.1332
     23 N          15.7671   43.7445    6.8406 N.ar    1  UNL1       -0.2258
     24 N          17.6064   42.7040    8.5697 N.ar    1  UNL1       -0.2378
@<TRIPOS>BOND
     1     7     8    1
     2     8     9    1
     3     9    10    1
     4     9     1    1
     5    10    12    1
     6    11    12    1
     7    11     7    1
     8    13    12    1
     9    13    14    1
    10    14    15    1
    11     1     6   ar
    12     2     5   ar
    13     3     4   ar
    14     4    17    1
    15    20    23   ar
    16    21    24   ar
    17    22    19   ar
    18    17    19    1
    19     1     2   ar
    20     3     5   ar
    21     4     6   ar
    22    19    23   ar
    23    20    21   ar
    24    22    24   ar
    25    17    18    1
    26    15    16    1
@<TRIPOS>MOLECULE
MolPort-051-666-749 MCULE-8495745083 PubChem-110095884
 24 26 0 0 0
SMALL
GASTEIGER

@<TRIPOS>ATOM
      1 C          10.2145   40.5349    7.9022 C.ar    1  UNL1        0.0805
      2 C          10.9847   39.5952    8.5989 C.ar    1  UNL1        0.1137
      3 C          12.9410   40.3954    7.5373 C.ar    1  UNL1        0.1332
      4 C          12.1817   41.3358    6.8318 C.ar    1  UNL1        0.1522
      5 N          12.3275   39.5486    8.4036 N.ar    1  UNL1       -0.2382
      6 N          10.8381   41.3775    7.0345 N.ar    1  UNL1       -0.2317
      7 C           6.4284   40.2802    7.0606 C.3     1  UNL1        0.0178
      8 C           7.9340   40.0994    6.8603 C.3     1  UNL1        0.0088
      9 C           8.7223   40.6267    8.0674 C.3     1  UNL1        0.0579
     10 C           8.3134   42.0617    8.4508 C.3     1  UNL1        0.0781
     11 C           6.0857   41.5943    7.7711 C.3     1  UNL1        0.0722
     12 N           7.1827   42.5550    7.6606 N.3     1  UNL1       -0.2702
     13 C           6.7421   43.7886    8.2915 C.3     1  UNL1        0.1042
     14 C           7.8748   44.4015    9.0967 C.3     1  UNL1        0.1544
     15 O           7.4719   45.6278    9.6280 O.3     1  UNL1       -0.3805
     16 H           7.2342   46.2305    8.9060 H       1  UNL1        0.2105
     17 N          12.7743   42.2355    5.8857 N.pl3   1  UNL1       -0.2809
     18 H          12.3727   42.2556    4.9870 H       1  UNL1        0.1551
     19 C          13.8888   43.1089    6.1082 C.ar    1  UNL1        0.1526
     20 C          15.0155   45.1631    5.7360 C.ar    1  UNL1        0.1210
     21 C          16.0734   44.7285    6.5367 C.ar    1  UNL1        0.1196
     22 C          14.9553   42.6718    6.8969 C.ar    1  UNL1        0.1332
     23 N          13.9477   44.3456    5.5406 N.ar    1  UNL1       -0.2258
     24 N          16.0212   43.4918    7.0984 N.ar    1  UNL1       -0.2378
@<TRIPOS>BOND
     1     7     8    1
     2     8     9    1
     3     9    10    1
     4     9     1    1
     5    10    12    1
     6    11    12    1
     7    11     7    1
     8    13    12    1
     9    13    14    1
    10    14    15    1
    11     1     6   ar
    12     2     5   ar
    13     3     4   ar
    14     4    17    1
    15    20    23   ar
    16    21    24   ar
    17    22    19   ar
    18    17    19    1
    19     1     2   ar
    20     3     5   ar
    21     4     6   ar
    22    19    23   ar
    23    20    21   ar
    24    22    24   ar
    25    17    18    1
    26    15    16    1
@<TRIPOS>MOLECULE
MolPort-051-666-749 MCULE-8495745083 PubChem-110095884
 24 26 0 0 0
SMALL
GASTEIGER

@<TRIPOS>ATOM
      1 C          10.6683   41.5594    8.3000 C.ar    1  UNL1        0.0805
      2 C          10.7584   40.3576    9.0137 C.ar    1  UNL1        0.1137
      3 C          13.0184   40.1238    8.3561 C.ar    1  UNL1        0.1332
      4 C          12.9396   41.3210    7.6355 C.ar    1  UNL1        0.1522
      5 N          11.9291   39.6701    9.0282 N.ar    1  UNL1       -0.2382
      6 N          11.7646   42.0046    7.6278 N.ar    1  UNL1       -0.2317
      7 C           7.9003   44.0963    9.3052 C.3     1  UNL1        0.0178
      8 C           9.2402   43.3629    9.3878 C.3     1  UNL1        0.0088
      9 C           9.3959   42.3590    8.2370 C.3     1  UNL1        0.0579
     10 C           8.1801   41.4213    8.1109 C.3     1  UNL1        0.0781
     11 C           6.7619   43.1848    8.8337 C.3     1  UNL1        0.0722
     12 N           7.0980   41.7755    9.0328 N.3     1  UNL1       -0.2702
     13 C           5.9391   40.9941    8.6326 C.3     1  UNL1        0.1042
     14 C           4.6696   41.6100    9.1949 C.3     1  UNL1        0.1544
     15 O           3.7034   40.6203    9.3832 O.3     1  UNL1       -0.3805
     16 H           3.5016   40.1994    8.5329 H       1  UNL1        0.2105
     17 N          14.0507   41.8319    6.8870 N.pl3   1  UNL1       -0.2809
     18 H          13.9874   41.7668    5.9067 H       1  UNL1        0.1551
     19 C          15.2436   42.4275    7.4131 C.ar    1  UNL1        0.1526
     20 C          17.1989   42.3108    8.7512 C.ar    1  UNL1        0.1210
     21 C          17.5000   43.6351    8.4276 C.ar    1  UNL1        0.1196
     22 C          15.5403   43.7565    7.1030 C.ar    1  UNL1        0.1332
     23 N          16.0798   41.7366    8.2367 N.ar    1  UNL1       -0.2258
     24 N          16.6634   44.3297    7.6120 N.ar    1  UNL1       -0.2378
@<TRIPOS>BOND
     1     7     8    1
     2     8     9    1
     3     9    10    1
     4     9     1    1
     5    10    12    1
     6    11    12    1
     7    11     7    1
     8    13    12    1
     9    13    14    1
    10    14    15    1
    11     1     6   ar
    12     2     5   ar
    13     3     4   ar
    14     4    17    1
    15    20    23   ar
    16    21    24   ar
    17    22    19   ar
    18    17    19    1
    19     1     2   ar
    20     3     5   ar
    21     4     6   ar
    22    19    23   ar
    23    20    21   ar
    24    22    24   ar
    25    17    18    1
    26    15    16    1
@<TRIPOS>MOLECULE
MolPort-051-666-749 MCULE-8495745083 PubChem-110095884
 24 26 0 0 0
SMALL
GASTEIGER

@<TRIPOS>ATOM
      1 C          11.3313   40.0523    8.5562 C.ar    1  UNL1        0.0805
      2 C          11.4182   39.7933    9.9299 C.ar    1  UNL1        0.1137
      3 C          13.6715   40.5127    9.9339 C.ar    1  UNL1        0.1332
      4 C          13.5985   40.7711    8.5605 C.ar    1  UNL1        0.1522
      5 N          12.5823   40.0315   10.5869 N.ar    1  UNL1       -0.2382
      6 N          12.4288   40.5321    7.9104 N.ar    1  UNL1       -0.2317
      7 C           8.9724   39.5369    5.5102 C.3     1  UNL1        0.0178
      8 C          10.2946   39.7315    6.2545 C.3     1  UNL1        0.0088
      9 C          10.0733   39.7975    7.7721 C.3     1  UNL1        0.0579
     10 C           8.9848   40.8163    8.1603 C.3     1  UNL1        0.0781
     11 C           7.8190   40.3160    6.1519 C.3     1  UNL1        0.0722
     12 N           8.3201   41.4020    6.9935 N.3     1  UNL1       -0.2702
     13 C           7.1649   42.1284    7.4949 C.3     1  UNL1        0.1042
     14 C           7.6030   43.4294    8.1450 C.3     1  UNL1        0.1544
     15 O           7.0141   43.5541    9.4045 O.3     1  UNL1       -0.3805
     16 H           6.0486   43.5560    9.3112 H       1  UNL1        0.2105
     17 N          14.7254   41.2543    7.8172 N.pl3   1  UNL1       -0.2809
     18 H          15.5074   40.6583    7.7673 H       1  UNL1        0.1551
     19 C          14.8353   42.5123    7.1389 C.ar    1  UNL1        0.1526
     20 C          16.0991   44.4145    6.4971 C.ar    1  UNL1        0.1210
     21 C          14.9778   44.9436    5.8553 C.ar    1  UNL1        0.1196
     22 C          13.7118   43.0512    6.5081 C.ar    1  UNL1        0.1332
     23 N          16.0037   43.2119    7.1228 N.ar    1  UNL1       -0.2258
     24 N          13.8081   44.2514    5.8761 N.ar    1  UNL1       -0.2378
@<TRIPOS>BOND
     1     7     8    1
     2     8     9    1
     3     9    10    1
     4     9     1    1
     5    10    12    1
     6    11    12    1
     7    11     7    1
     8    13    12    1
     9    13    14    1
    10    14    15    1
    11     1     6   ar
    12     2     5   ar
    13     3     4   ar
    14     4    17    1
    15    20    23   ar
    16    21    24   ar
    17    22    19   ar
    18    17    19    1
    19     1     2   ar
    20     3     5   ar
    21     4     6   ar
    22    19    23   ar
    23    20    21   ar
    24    22    24   ar
    25    17    18    1
    26    15    16    1
