@<TRIPOS>MOLECULE
Molport-053-274-375
 20 20 0 0 0
SMALL
GASTEIGER

@<TRIPOS>ATOM
      1 C           8.5235   43.2428    9.4583 C.ar    1  UNL1        0.1580
      2 C           9.1970   44.1409   10.2604 C.ar    1  UNL1        0.1256
      3 C          10.6004   42.7167    9.5222 C.ar    1  UNL1        0.2065
      4 C           9.1434   41.1827    8.1325 C.3     1  UNL1        0.1334
      5 N          10.5039   43.8184   10.2980 N.ar    1  UNL1       -0.2116
      6 N           9.4094   42.3279    9.0057 N.ar    1  UNL1       -0.2922
      7 C          12.3448   40.9309    9.9406 C.2     1  UNL1        0.4073
      8 O          11.6285   40.3641   10.8098 O.2     1  UNL1       -0.2260
      9 N          11.8533   42.0737    9.2287 N.am    1  UNL1       -0.2210
     10 H          12.4035   42.4388    8.4985 H       1  UNL1        0.1610
     11 O          13.6283   40.4501    9.6407 O.3     1  UNL1       -0.4417
     12 C          14.2285   39.2498   10.1511 C.3     1  UNL1        0.1378
     13 C          13.5835   38.0688    9.4096 C.3     1  UNL1        0.0437
     14 C          15.7446   39.2414    9.8758 C.3     1  UNL1        0.0437
     15 C          13.9494   39.1019   11.6592 C.3     1  UNL1        0.0437
     16 C           7.0861   43.3177    9.1270 C.2     1  UNL1        0.3589
     17 O           6.3037   42.4301    9.5649 O.2     1  UNL1       -0.2432
     18 O           6.5907   44.3709    8.3503 O.3     1  UNL1       -0.4444
     19 C           4.2687   44.8111    7.7991 C.3     1  UNL1        0.0513
     20 C           5.5923   44.2070    7.3452 C.3     1  UNL1        0.2089
@<TRIPOS>BOND
     1    19    20    1
     2    20    18    1
     3    16    18    1
     4    16     1    1
     5     2     5   ar
     6     3     9    1
     7     3     6   ar
     8     7    11    1
     9    12    11    1
    10    12    13    1
    11    12    14    1
    12    12    15    1
    13     4     6    1
    14     9     7   am
    15     6     1   ar
    16    16    17    2
    17     1     2   ar
    18     3     5   ar
    19     7     8    2
    20     9    10    1
@<TRIPOS>MOLECULE
Molport-053-274-375
 20 20 0 0 0
SMALL
GASTEIGER

@<TRIPOS>ATOM
      1 C           9.9052   41.5987    7.1923 C.ar    1  UNL1        0.1580
      2 C          10.1933   41.0615    5.9546 C.ar    1  UNL1        0.1256
      3 C          12.0266   41.6218    6.8862 C.ar    1  UNL1        0.2065
      4 C          11.2457   42.5975    9.0874 C.3     1  UNL1        0.1334
      5 N          11.5258   41.0675    5.7606 N.ar    1  UNL1       -0.2116
      6 N          11.0659   41.9722    7.7754 N.ar    1  UNL1       -0.2922
      7 C          14.2652   42.7322    6.4832 C.2     1  UNL1        0.4073
      8 O          13.7539   43.6033    5.7286 O.2     1  UNL1       -0.2260
      9 N          13.4376   41.7573    7.1308 N.am    1  UNL1       -0.2210
     10 H          13.8581   41.1469    7.7787 H       1  UNL1        0.1610
     11 O          15.6484   42.7053    6.7175 O.3     1  UNL1       -0.4417
     12 C          16.5258   43.8407    6.7661 C.3     1  UNL1        0.1378
     13 C          17.7011   43.5472    5.8212 C.3     1  UNL1        0.0437
     14 C          15.7999   45.1091    6.2777 C.3     1  UNL1        0.0437
     15 C          17.0732   44.0432    8.1921 C.3     1  UNL1        0.0437
     16 C           8.5530   41.6945    7.7784 C.2     1  UNL1        0.3589
     17 O           8.1353   40.7668    8.5245 O.2     1  UNL1       -0.2432
     18 O           7.7470   42.8100    7.5251 O.3     1  UNL1       -0.4444
     19 C           6.1581   44.4355    8.3753 C.3     1  UNL1        0.0513
     20 C           7.5777   43.8854    8.4464 C.3     1  UNL1        0.2089
@<TRIPOS>BOND
     1    19    20    1
     2    20    18    1
     3    16    18    1
     4    16     1    1
     5     2     5   ar
     6     3     9    1
     7     3     6   ar
     8     7    11    1
     9    12    11    1
    10    12    13    1
    11    12    14    1
    12    12    15    1
    13     4     6    1
    14     9     7   am
    15     6     1   ar
    16    16    17    2
    17     1     2   ar
    18     3     5   ar
    19     7     8    2
    20     9    10    1
@<TRIPOS>MOLECULE
Molport-053-274-375
 20 20 0 0 0
SMALL
GASTEIGER

@<TRIPOS>ATOM
      1 C          10.3452   41.7048   10.3642 C.ar    1  UNL1        0.1580
      2 C          10.2514   41.0220   11.5594 C.ar    1  UNL1        0.1256
      3 C           8.3630   41.9217   11.1504 C.ar    1  UNL1        0.2065
      4 C           8.7924   43.1254    8.9655 C.3     1  UNL1        0.1334
      5 N           9.0054   41.1496   12.0538 N.ar    1  UNL1       -0.2116
      6 N           9.1538   42.2919   10.1140 N.ar    1  UNL1       -0.2922
      7 C           5.9719   41.7963   10.3297 C.2     1  UNL1        0.4073
      8 O           6.2744   40.9785    9.4190 O.2     1  UNL1       -0.2260
      9 N           6.9669   42.2519   11.2554 N.am    1  UNL1       -0.2210
     10 H           6.6790   42.8224   12.0043 H       1  UNL1        0.1610
     11 O           4.6571   42.2665   10.4671 O.3     1  UNL1       -0.4417
     12 C           3.4900   41.4696   10.7202 C.3     1  UNL1        0.1378
     13 C           2.5921   42.2700   11.6761 C.3     1  UNL1        0.0437
     14 C           2.7167   41.2087    9.4132 C.3     1  UNL1        0.0437
     15 C           3.8765   40.1406   11.3973 C.3     1  UNL1        0.0437
     16 C          11.5420   41.7346    9.4992 C.2     1  UNL1        0.3589
     17 O          11.9000   42.8255    8.9763 O.2     1  UNL1       -0.2432
     18 O          12.2839   40.5697    9.2738 O.3     1  UNL1       -0.4444
     19 C          13.6146   39.6301   11.0726 C.3     1  UNL1        0.0513
     20 C          13.6162   40.3803    9.7459 C.3     1  UNL1        0.2089
@<TRIPOS>BOND
     1    19    20    1
     2    20    18    1
     3    16    18    1
     4    16     1    1
     5     2     5   ar
     6     3     9    1
     7     3     6   ar
     8     7    11    1
     9    12    11    1
    10    12    13    1
    11    12    14    1
    12    12    15    1
    13     4     6    1
    14     9     7   am
    15     6     1   ar
    16    16    17    2
    17     1     2   ar
    18     3     5   ar
    19     7     8    2
    20     9    10    1
@<TRIPOS>MOLECULE
Molport-053-274-375
 20 20 0 0 0
SMALL
GASTEIGER

@<TRIPOS>ATOM
      1 C          13.8469   40.8150    8.7551 C.ar    1  UNL1        0.1580
      2 C          13.8984   41.6300    7.6431 C.ar    1  UNL1        0.1256
      3 C          12.0032   41.8945    8.5818 C.ar    1  UNL1        0.2065
      4 C          12.1346   40.2953   10.5395 C.3     1  UNL1        0.1334
      5 N          12.7446   42.3157    7.5340 N.ar    1  UNL1       -0.2116
      6 N          12.6379   40.9675    9.3398 N.ar    1  UNL1       -0.2922
      7 C           9.5682   42.3024    8.0242 C.2     1  UNL1        0.4073
      8 O           9.6382   41.6011    6.9787 O.2     1  UNL1       -0.2260
      9 N          10.7047   42.4322    8.8880 N.am    1  UNL1       -0.2210
     10 H          10.5902   42.9161    9.7376 H       1  UNL1        0.1610
     11 O           8.3775   42.9576    8.3729 O.3     1  UNL1       -0.4417
     12 C           7.0525   42.5950    7.9555 C.3     1  UNL1        0.1378
     13 C           6.9164   42.9948    6.4783 C.3     1  UNL1        0.0437
     14 C           6.8411   41.0738    8.0804 C.3     1  UNL1        0.0437
     15 C           5.9963   43.3594    8.7766 C.3     1  UNL1        0.0437
     16 C          14.9562   39.9647    9.2323 C.2     1  UNL1        0.3589
     17 O          16.1352   40.4129    9.2038 O.2     1  UNL1       -0.2432
     18 O          14.7038   38.6808    9.7282 O.3     1  UNL1       -0.4444
     19 C          13.0237   36.9555    9.4276 C.3     1  UNL1        0.0513
     20 C          14.3122   37.5820    8.9077 C.3     1  UNL1        0.2089
@<TRIPOS>BOND
     1    19    20    1
     2    20    18    1
     3    16    18    1
     4    16     1    1
     5     2     5   ar
     6     3     9    1
     7     3     6   ar
     8     7    11    1
     9    12    11    1
    10    12    13    1
    11    12    14    1
    12    12    15    1
    13     4     6    1
    14     9     7   am
    15     6     1   ar
    16    16    17    2
    17     1     2   ar
    18     3     5   ar
    19     7     8    2
    20     9    10    1
@<TRIPOS>MOLECULE
Molport-053-274-375
 20 20 0 0 0
SMALL
GASTEIGER

@<TRIPOS>ATOM
      1 C          13.6403   37.6909   10.8172 C.ar    1  UNL1        0.1580
      2 C          13.1978   36.4840   10.3161 C.ar    1  UNL1        0.1256
      3 C          11.7147   37.9613    9.9155 C.ar    1  UNL1        0.2065
      4 C          12.7233   40.0422   10.9447 C.3     1  UNL1        0.1334
      5 N          11.9911   36.6503    9.7423 N.ar    1  UNL1       -0.2116
      6 N          12.6916   38.6241   10.5809 N.ar    1  UNL1       -0.2922
      7 C          10.5069   39.3059    8.1435 C.2     1  UNL1        0.4073
      8 O          11.5221   39.3268    7.3960 O.2     1  UNL1       -0.2260
      9 N          10.5343   38.5888    9.3843 N.am    1  UNL1       -0.2210
     10 H           9.6993   38.5222    9.9015 H       1  UNL1        0.1610
     11 O           9.3270   39.9689    7.7735 O.3     1  UNL1       -0.4417
     12 C           8.9734   41.3221    8.0978 C.3     1  UNL1        0.1378
     13 C           8.5423   42.0045    6.7905 C.3     1  UNL1        0.0437
     14 C           7.7926   41.3525    9.0873 C.3     1  UNL1        0.0437
     15 C          10.1861   42.0766    8.6758 C.3     1  UNL1        0.0437
     16 C          14.9533   37.9105   11.4569 C.2     1  UNL1        0.3589
     17 O          15.4022   37.0469   12.2596 O.2     1  UNL1       -0.2432
     18 O          15.7028   39.0554   11.1643 O.3     1  UNL1       -0.4444
     19 C          17.7091   38.1504   10.1421 C.3     1  UNL1        0.0513
     20 C          17.1281   39.0922   11.1902 C.3     1  UNL1        0.2089
@<TRIPOS>BOND
     1    19    20    1
     2    20    18    1
     3    16    18    1
     4    16     1    1
     5     2     5   ar
     6     3     9    1
     7     3     6   ar
     8     7    11    1
     9    12    11    1
    10    12    13    1
    11    12    14    1
    12    12    15    1
    13     4     6    1
    14     9     7   am
    15     6     1   ar
    16    16    17    2
    17     1     2   ar
    18     3     5   ar
    19     7     8    2
    20     9    10    1
@<TRIPOS>MOLECULE
Molport-053-274-375
 20 20 0 0 0
SMALL
GASTEIGER

@<TRIPOS>ATOM
      1 C          13.3735   38.2469   10.6016 C.ar    1  UNL1        0.1580
      2 C          13.4036   36.9437   10.1497 C.ar    1  UNL1        0.1256
      3 C          11.5131   37.7867    9.6417 C.ar    1  UNL1        0.2065
      4 C          11.6844   40.1265   10.5918 C.3     1  UNL1        0.1334
      5 N          12.2392   36.6521    9.5395 N.ar    1  UNL1       -0.2116
      6 N          12.1676   38.7759   10.2972 N.ar    1  UNL1       -0.2922
      7 C           9.9565   38.7122    7.8733 C.2     1  UNL1        0.4073
      8 O          10.9119   39.2229    7.2281 O.2     1  UNL1       -0.2260
      9 N          10.2096   37.9372    9.0522 N.am    1  UNL1       -0.2210
     10 H           9.4494   37.4828    9.4822 H       1  UNL1        0.1610
     11 O           8.6302   38.8775    7.4466 O.3     1  UNL1       -0.4417
     12 C           8.1810   39.7085    6.3653 C.3     1  UNL1        0.1378
     13 C           8.5216   41.1600    6.7364 C.3     1  UNL1        0.0437
     14 C           8.9139   39.3440    5.0598 C.3     1  UNL1        0.0437
     15 C           6.6558   39.5866    6.1843 C.3     1  UNL1        0.0437
     16 C          14.4991   38.9393   11.2612 C.2     1  UNL1        0.3589
     17 O          14.8246   38.6107   12.4350 O.2     1  UNL1       -0.2432
     18 O          15.2108   39.9381   10.5875 O.3     1  UNL1       -0.4444
     19 C          14.6771   41.1097    8.5303 C.3     1  UNL1        0.0513
     20 C          15.4162   39.9438    9.1763 C.3     1  UNL1        0.2089
@<TRIPOS>BOND
     1    19    20    1
     2    20    18    1
     3    16    18    1
     4    16     1    1
     5     2     5   ar
     6     3     9    1
     7     3     6   ar
     8     7    11    1
     9    12    11    1
    10    12    13    1
    11    12    14    1
    12    12    15    1
    13     4     6    1
    14     9     7   am
    15     6     1   ar
    16    16    17    2
    17     1     2   ar
    18     3     5   ar
    19     7     8    2
    20     9    10    1
@<TRIPOS>MOLECULE
Molport-053-274-375
 20 20 0 0 0
SMALL
GASTEIGER

@<TRIPOS>ATOM
      1 C          14.4726   37.8085   10.6036 C.ar    1  UNL1        0.1580
      2 C          13.6195   36.7249   10.5672 C.ar    1  UNL1        0.1256
      3 C          13.0259   38.0977    9.0487 C.ar    1  UNL1        0.2065
      4 C          14.6894   39.9837    9.3358 C.3     1  UNL1        0.1334
      5 N          12.7128   36.8988    9.5870 N.ar    1  UNL1       -0.2116
      6 N          14.0848   38.6885    9.6539 N.ar    1  UNL1       -0.2922
      7 C          11.2398   39.5582    8.0077 C.2     1  UNL1        0.4073
      8 O          10.8840   40.0095    9.1299 O.2     1  UNL1       -0.2260
      9 N          12.3413   38.6463    7.9087 N.am    1  UNL1       -0.2210
     10 H          12.6461   38.3808    7.0111 H       1  UNL1        0.1610
     11 O          10.5785   39.9471    6.8329 O.3     1  UNL1       -0.4417
     12 C           9.3834   39.3609    6.2948 C.3     1  UNL1        0.1378
     13 C           9.0125   38.1753    7.1987 C.3     1  UNL1        0.0437
     14 C           8.2260   40.3780    6.3088 C.3     1  UNL1        0.0437
     15 C           9.6305   38.8387    4.8664 C.3     1  UNL1        0.0437
     16 C          15.6350   37.9396   11.5053 C.2     1  UNL1        0.3589
     17 O          15.8747   37.0261   12.3418 O.2     1  UNL1       -0.2432
     18 O          16.4745   39.0562   11.4234 O.3     1  UNL1       -0.4444
     19 C          18.0322   37.8351   10.0190 C.3     1  UNL1        0.0513
     20 C          17.8320   38.9914   10.9916 C.3     1  UNL1        0.2089
@<TRIPOS>BOND
     1    19    20    1
     2    20    18    1
     3    16    18    1
     4    16     1    1
     5     2     5   ar
     6     3     9    1
     7     3     6   ar
     8     7    11    1
     9    12    11    1
    10    12    13    1
    11    12    14    1
    12    12    15    1
    13     4     6    1
    14     9     7   am
    15     6     1   ar
    16    16    17    2
    17     1     2   ar
    18     3     5   ar
    19     7     8    2
    20     9    10    1
@<TRIPOS>MOLECULE
Molport-053-274-375
 20 20 0 0 0
SMALL
GASTEIGER

@<TRIPOS>ATOM
      1 C          11.9901   41.6692    6.6494 C.ar    1  UNL1        0.1580
      2 C          11.5408   40.9743    5.5454 C.ar    1  UNL1        0.1256
      3 C          10.0065   40.9491    7.0245 C.ar    1  UNL1        0.2065
      4 C          11.0647   42.2324    8.9325 C.3     1  UNL1        0.1334
      5 N          10.2919   40.5258    5.7738 N.ar    1  UNL1       -0.2116
      6 N          11.0252   41.6369    7.5952 N.ar    1  UNL1       -0.2922
      7 C           7.4896   41.2089    7.0919 C.2     1  UNL1        0.4073
      8 O           7.4638   41.7428    5.9500 O.2     1  UNL1       -0.2260
      9 N           8.7262   40.7431    7.6472 N.am    1  UNL1       -0.2210
     10 H           8.6978   40.2553    8.5019 H       1  UNL1        0.1610
     11 O           6.3118   41.0456    7.8368 O.3     1  UNL1       -0.4417
     12 C           5.8701   41.8734    8.9236 C.3     1  UNL1        0.1378
     13 C           6.0486   43.3344    8.4832 C.3     1  UNL1        0.0437
     14 C           4.3799   41.6236    9.2255 C.3     1  UNL1        0.0437
     15 C           6.7279   41.6244   10.1791 C.3     1  UNL1        0.0437
     16 C          13.2908   42.3630    6.7400 C.2     1  UNL1        0.3589
     17 O          14.2768   41.7641    7.2506 O.2     1  UNL1       -0.2432
     18 O          13.4362   43.6653    6.2491 O.3     1  UNL1       -0.4444
     19 C          15.5283   44.8897    6.1313 C.3     1  UNL1        0.0513
     20 C          14.4913   44.0656    5.3772 C.3     1  UNL1        0.2089
@<TRIPOS>BOND
     1    19    20    1
     2    20    18    1
     3    16    18    1
     4    16     1    1
     5     2     5   ar
     6     3     9    1
     7     3     6   ar
     8     7    11    1
     9    12    11    1
    10    12    13    1
    11    12    14    1
    12    12    15    1
    13     4     6    1
    14     9     7   am
    15     6     1   ar
    16    16    17    2
    17     1     2   ar
    18     3     5   ar
    19     7     8    2
    20     9    10    1
@<TRIPOS>MOLECULE
Molport-053-274-375
 20 20 0 0 0
SMALL
GASTEIGER

@<TRIPOS>ATOM
      1 C           4.5679   43.1297    8.8462 C.ar    1  UNL1        0.1580
      2 C           4.4519   44.3046    8.1322 C.ar    1  UNL1        0.1256
      3 C           6.3556   43.4456    7.7067 C.ar    1  UNL1        0.2065
      4 C           6.3454   41.3573    9.1369 C.3     1  UNL1        0.1334
      5 N           5.5702   44.5038    7.4091 N.ar    1  UNL1       -0.2116
      6 N           5.7826   42.5946    8.5921 N.ar    1  UNL1       -0.2922
      7 C           7.8488   42.2950    6.0176 C.2     1  UNL1        0.4073
      8 O           6.8737   41.6956    5.4890 O.2     1  UNL1       -0.2260
      9 N           7.6355   43.2229    7.0891 N.am    1  UNL1       -0.2210
     10 H           8.4075   43.7361    7.4206 H       1  UNL1        0.1610
     11 O           9.1584   42.0801    5.5621 O.3     1  UNL1       -0.4417
     12 C          10.0439   41.0304    5.9810 C.3     1  UNL1        0.1378
     13 C          10.3064   40.1417    4.7556 C.3     1  UNL1        0.0437
     14 C          11.3843   41.6131    6.4688 C.3     1  UNL1        0.0437
     15 C           9.3896   40.1759    7.0837 C.3     1  UNL1        0.0437
     16 C           3.5105   42.5513    9.6999 C.2     1  UNL1        0.3589
     17 O           2.4968   42.0289    9.1601 O.2     1  UNL1       -0.2432
     18 O           3.6367   42.5649   11.0934 O.3     1  UNL1       -0.4444
     19 C           4.0446   40.1858   11.3442 C.3     1  UNL1        0.0513
     20 C           3.3797   41.4309   11.9191 C.3     1  UNL1        0.2089
@<TRIPOS>BOND
     1    19    20    1
     2    20    18    1
     3    16    18    1
     4    16     1    1
     5     2     5   ar
     6     3     9    1
     7     3     6   ar
     8     7    11    1
     9    12    11    1
    10    12    13    1
    11    12    14    1
    12    12    15    1
    13     4     6    1
    14     9     7   am
    15     6     1   ar
    16    16    17    2
    17     1     2   ar
    18     3     5   ar
    19     7     8    2
    20     9    10    1
@<TRIPOS>MOLECULE
Molport-053-274-375
 20 20 0 0 0
SMALL
GASTEIGER

@<TRIPOS>ATOM
      1 C          10.8333   40.4122    6.8052 C.ar    1  UNL1        0.1580
      2 C          10.4002   40.1502    5.5218 C.ar    1  UNL1        0.1256
      3 C           8.7527   40.9020    6.6457 C.ar    1  UNL1        0.2065
      4 C           9.7721   41.2658    8.9338 C.3     1  UNL1        0.1334
      5 N           9.0949   40.4631    5.4148 N.ar    1  UNL1       -0.2116
      6 N           9.7844   40.8705    7.5239 N.ar    1  UNL1       -0.2922
      7 C           6.9330   42.6509    6.4540 C.2     1  UNL1        0.4073
      8 O           7.5900   43.3140    5.6064 O.2     1  UNL1       -0.2260
      9 N           7.4443   41.4108    6.9593 N.am    1  UNL1       -0.2210
     10 H           6.8682   40.8779    7.5537 H       1  UNL1        0.1610
     11 O           5.6849   43.1018    6.9098 O.3     1  UNL1       -0.4417
     12 C           5.4434   43.9031    8.0764 C.3     1  UNL1        0.1378
     13 C           4.9830   42.9531    9.1925 C.3     1  UNL1        0.0437
     14 C           6.7364   44.6098    8.5268 C.3     1  UNL1        0.0437
     15 C           4.3279   44.9314    7.8073 C.3     1  UNL1        0.0437
     16 C          12.2242   40.2555    7.2767 C.2     1  UNL1        0.3589
     17 O          12.6105   39.1317    7.7004 O.2     1  UNL1       -0.2432
     18 O          13.1125   41.3360    7.2388 O.3     1  UNL1       -0.4444
     19 C          14.0096   43.4972    6.5950 C.3     1  UNL1        0.0513
     20 C          13.0909   42.3387    6.2249 C.3     1  UNL1        0.2089
@<TRIPOS>BOND
     1    19    20    1
     2    20    18    1
     3    16    18    1
     4    16     1    1
     5     2     5   ar
     6     3     9    1
     7     3     6   ar
     8     7    11    1
     9    12    11    1
    10    12    13    1
    11    12    14    1
    12    12    15    1
    13     4     6    1
    14     9     7   am
    15     6     1   ar
    16    16    17    2
    17     1     2   ar
    18     3     5   ar
    19     7     8    2
    20     9    10    1
