@<TRIPOS>MOLECULE
Molport-047-073-947 MCULE-8851065548 PubChem-132767947
 35 39 0 0 0
SMALL
GASTEIGER

@<TRIPOS>ATOM
      1 N           9.8850   43.2820    9.9083 N.pl3   1  UNL1       -0.2781
      2 H          10.0556   44.2369   10.0769 H       1  UNL1        0.1555
      3 C           8.9886   42.6181   10.8031 C.ar    1  UNL1        0.1361
      4 C           7.6372   42.5412   10.4687 C.ar    1  UNL1        0.0492
      5 C           6.7699   41.8773   11.3330 C.ar    1  UNL1        0.0641
      6 C           8.5712   41.4038   12.7900 C.ar    1  UNL1        0.1406
      7 C           9.0678   40.7971   14.0517 C.3     1  UNL1        0.0737
      8 N           7.2520   41.3210   12.4764 N.ar    1  UNL1       -0.2349
      9 N           9.4312   42.0481   11.9569 N.ar    1  UNL1       -0.2159
     10 C           5.3196   41.7881   10.9933 C.3     1  UNL1        0.0564
     11 C           4.7489   40.4228   11.3836 C.3     1  UNL1        0.0087
     12 C           3.4193   40.1221   10.6861 C.3     1  UNL1        0.0178
     13 C           2.7869   41.3938   10.1219 C.3     1  UNL1        0.0731
     14 C           5.0796   42.0754    9.5066 C.3     1  UNL1        0.0789
     15 N           3.6567   42.0211    9.1160 N.3     1  UNL1       -0.2596
     16 C           3.2018   43.3938    8.9666 C.3     1  UNL1        0.1795
     17 C           4.2676   44.2084    8.3758 C.1     1  UNL1        0.0912
     18 N           5.1083   44.8541    7.9102 N.1     1  UNL1       -0.1944
     19 C          12.2179   42.1776    7.3780 C.ar    1  UNL1        0.1434
     20 C          11.1842   41.4842    6.7408 C.ar    1  UNL1        0.0619
     21 C          10.5578   42.6927    8.7920 C.ar    1  UNL1        0.1648
     22 S           9.7928   41.7345    7.6542 S.2     1  UNL1       -0.0507
     23 N          11.8682   42.8499    8.5119 N.ar    1  UNL1       -0.2193
     24 C          13.5904   42.2072    6.8340 C.2     1  UNL1        0.2710
     25 C          14.6651   40.6570    8.4563 C.3     1  UNL1        0.0989
     26 C          15.6173   40.7327    9.6433 C.3     1  UNL1        0.0266
     27 C          17.0410   40.9596    9.1513 C.3     1  UNL1        0.0294
     28 C          17.1159   42.1611    8.2580 C.ar    1  UNL1       -0.0084
     29 C          18.3285   42.8478    8.1496 C.ar    1  UNL1       -0.0030
     30 C          18.4281   43.9736    7.3287 C.ar    1  UNL1       -0.0002
     31 C          17.3136   44.4207    6.6163 C.ar    1  UNL1        0.0013
     32 C          16.0998   43.7370    6.7178 C.ar    1  UNL1        0.0146
     33 C          15.9871   42.5916    7.5258 C.ar    1  UNL1        0.0502
     34 N          14.7284   41.8837    7.6555 N.am    1  UNL1       -0.2542
     35 O          13.7618   42.5200    5.6238 O.2     1  UNL1       -0.2679
@<TRIPOS>BOND
     1    19    24    1
     2    19    23   ar
     3    20    22   ar
     4    21    22   ar
     5    21     1    1
     6     3     9   ar
     7     4     5   ar
     8    10     5    1
     9    10    11    1
    10    11    12    1
    11    12    13    1
    12    13    15    1
    13    16    15    1
    14    16    17    1
    15    14    15    1
    16    14    10    1
    17     6     8   ar
    18     7     6    1
    19    24    34   am
    20    25    34    1
    21    25    26    1
    22    26    27    1
    23    27    28    1
    24    29    30   ar
    25    31    32   ar
    26    33    34    1
    27    33    28   ar
    28     1     3    1
    29    19    20   ar
    30    21    23   ar
    31     3     4   ar
    32     5     8   ar
    33     6     9   ar
    34    24    35    2
    35    28    29   ar
    36    30    31   ar
    37    32    33   ar
    38    17    18    3
    39     1     2    1
@<TRIPOS>MOLECULE
Molport-047-073-947 MCULE-8851065548 PubChem-132767947
 35 39 0 0 0
SMALL
GASTEIGER

@<TRIPOS>ATOM
      1 N          12.9370   42.2717    6.0614 N.pl3   1  UNL1       -0.2781
      2 H          13.0890   42.7988    5.2440 H       1  UNL1        0.1555
      3 C          14.0594   42.0843    6.9275 C.ar    1  UNL1        0.1361
      4 C          14.0385   41.0290    7.8385 C.ar    1  UNL1        0.0492
      5 C          15.1414   40.8378    8.6675 C.ar    1  UNL1        0.0641
      6 C          16.2153   42.6998    7.6822 C.ar    1  UNL1        0.1406
      7 C          17.3900   43.6063    7.6105 C.3     1  UNL1        0.0737
      8 N          16.2086   41.6753    8.5742 N.ar    1  UNL1       -0.2349
      9 N          15.1469   42.9001    6.8654 N.ar    1  UNL1       -0.2159
     10 C          15.1353   39.7157    9.6512 C.3     1  UNL1        0.0564
     11 C          13.9232   39.8092   10.5808 C.3     1  UNL1        0.0087
     12 C          14.0896   38.9653   11.8477 C.3     1  UNL1        0.0178
     13 C          15.2002   37.9284   11.6837 C.3     1  UNL1        0.0731
     14 C          16.4393   39.6772   10.4565 C.3     1  UNL1        0.0789
     15 N          16.4983   38.5721   11.4339 N.3     1  UNL1       -0.2596
     16 C          17.3706   37.5526   10.8742 C.3     1  UNL1        0.1795
     17 C          18.4414   38.1862   10.0994 C.1     1  UNL1        0.0912
     18 N          19.2887   38.6873    9.4898 N.1     1  UNL1       -0.1944
     19 C           9.4908   41.6802    6.9772 C.ar    1  UNL1        0.1434
     20 C           9.5488   40.4307    6.3519 C.ar    1  UNL1        0.0619
     21 C          11.6146   41.7671    6.2682 C.ar    1  UNL1        0.1648
     22 S          11.1025   40.2702    5.7247 S.2     1  UNL1       -0.0507
     23 N          10.6374   42.4173    6.9335 N.ar    1  UNL1       -0.2193
     24 C           8.2753   42.1511    7.6710 C.2     1  UNL1        0.2710
     25 C           9.1549   42.1533    9.9983 C.3     1  UNL1        0.0989
     26 C           9.0135   41.3250   11.2692 C.3     1  UNL1        0.0266
     27 C           7.6777   41.6253   11.9370 C.3     1  UNL1        0.0294
     28 C           6.5419   41.4320   10.9782 C.ar    1  UNL1       -0.0084
     29 C           5.2761   41.1225   11.4838 C.ar    1  UNL1       -0.0030
     30 C           4.1990   40.9321   10.6148 C.ar    1  UNL1       -0.0002
     31 C           4.3845   41.0454    9.2355 C.ar    1  UNL1        0.0013
     32 C           5.6462   41.3577    8.7241 C.ar    1  UNL1        0.0146
     33 C           6.7370   41.5700    9.5858 C.ar    1  UNL1        0.0502
     34 N           8.0563   41.8756    9.0677 N.am    1  UNL1       -0.2542
     35 O           7.4173   42.8100    7.0218 O.2     1  UNL1       -0.2679
@<TRIPOS>BOND
     1    19    24    1
     2    19    23   ar
     3    20    22   ar
     4    21    22   ar
     5    21     1    1
     6     3     9   ar
     7     4     5   ar
     8    10     5    1
     9    10    11    1
    10    11    12    1
    11    12    13    1
    12    13    15    1
    13    16    15    1
    14    16    17    1
    15    14    15    1
    16    14    10    1
    17     6     8   ar
    18     7     6    1
    19    24    34   am
    20    25    34    1
    21    25    26    1
    22    26    27    1
    23    27    28    1
    24    29    30   ar
    25    31    32   ar
    26    33    34    1
    27    33    28   ar
    28     1     3    1
    29    19    20   ar
    30    21    23   ar
    31     3     4   ar
    32     5     8   ar
    33     6     9   ar
    34    24    35    2
    35    28    29   ar
    36    30    31   ar
    37    32    33   ar
    38    17    18    3
    39     1     2    1
@<TRIPOS>MOLECULE
Molport-047-073-947 MCULE-8851065548 PubChem-132767947
 35 39 0 0 0
SMALL
GASTEIGER

@<TRIPOS>ATOM
      1 N          11.7459   42.3485    5.7308 N.pl3   1  UNL1       -0.2781
      2 H          11.6719   43.1352    5.1434 H       1  UNL1        0.1555
      3 C          12.9584   42.2108    6.4765 C.ar    1  UNL1        0.1361
      4 C          13.0466   41.2063    7.4393 C.ar    1  UNL1        0.0492
      5 C          14.2355   41.0626    8.1505 C.ar    1  UNL1        0.0641
      6 C          15.1791   42.8711    6.9546 C.ar    1  UNL1        0.1406
      7 C          16.3313   43.7751    6.7053 C.3     1  UNL1        0.0737
      8 N          15.2791   41.8962    7.8954 N.ar    1  UNL1       -0.2349
      9 N          14.0256   43.0245    6.2512 N.ar    1  UNL1       -0.2159
     10 C          14.3470   39.9953    9.1874 C.3     1  UNL1        0.0564
     11 C          13.2637   40.1553   10.2565 C.3     1  UNL1        0.0087
     12 C          13.5842   39.3786   11.5367 C.3     1  UNL1        0.0178
     13 C          14.6578   38.3193   11.2907 C.3     1  UNL1        0.0731
     14 C          15.7426   39.9823    9.8220 C.3     1  UNL1        0.0789
     15 N          15.9180   38.9307   10.8435 N.3     1  UNL1       -0.2596
     16 C          16.7050   37.8706   10.2348 C.3     1  UNL1        0.1795
     17 C          15.8208   36.7912    9.7859 C.1     1  UNL1        0.0912
     18 N          15.1227   35.9373    9.4337 N.1     1  UNL1       -0.1944
     19 C           8.5572   40.6979    6.1455 C.ar    1  UNL1        0.1434
     20 C           9.0937   39.5387    5.5763 C.ar    1  UNL1        0.0619
     21 C          10.6303   41.4537    5.7559 C.ar    1  UNL1        0.1648
     22 S          10.6962   39.8804    5.1914 S.2     1  UNL1       -0.0507
     23 N           9.4110   41.7564    6.2480 N.ar    1  UNL1       -0.2193
     24 C           7.1656   40.7556    6.6362 C.2     1  UNL1        0.2710
     25 C           6.7402   43.1776    6.2589 C.3     1  UNL1        0.0989
     26 C           6.6070   44.4518    7.0836 C.3     1  UNL1        0.0266
     27 C           5.2521   44.4790    7.7793 C.3     1  UNL1        0.0294
     28 C           5.0349   43.2320    8.5822 C.ar    1  UNL1       -0.0084
     29 C           4.1710   43.2771    9.6800 C.ar    1  UNL1       -0.0030
     30 C           3.9519   42.1324   10.4500 C.ar    1  UNL1       -0.0002
     31 C           4.6003   40.9383   10.1283 C.ar    1  UNL1        0.0013
     32 C           5.4624   40.8857    9.0306 C.ar    1  UNL1        0.0146
     33 C           5.6802   42.0243    8.2344 C.ar    1  UNL1        0.0502
     34 N           6.5872   41.9890    7.1038 N.am    1  UNL1       -0.2542
     35 O           6.4745   39.7000    6.6403 O.2     1  UNL1       -0.2679
@<TRIPOS>BOND
     1    19    24    1
     2    19    23   ar
     3    20    22   ar
     4    21    22   ar
     5    21     1    1
     6     3     9   ar
     7     4     5   ar
     8    10     5    1
     9    10    11    1
    10    11    12    1
    11    12    13    1
    12    13    15    1
    13    16    15    1
    14    16    17    1
    15    14    15    1
    16    14    10    1
    17     6     8   ar
    18     7     6    1
    19    24    34   am
    20    25    34    1
    21    25    26    1
    22    26    27    1
    23    27    28    1
    24    29    30   ar
    25    31    32   ar
    26    33    34    1
    27    33    28   ar
    28     1     3    1
    29    19    20   ar
    30    21    23   ar
    31     3     4   ar
    32     5     8   ar
    33     6     9   ar
    34    24    35    2
    35    28    29   ar
    36    30    31   ar
    37    32    33   ar
    38    17    18    3
    39     1     2    1
@<TRIPOS>MOLECULE
Molport-047-073-947 MCULE-8851065548 PubChem-132767947
 35 39 0 0 0
SMALL
GASTEIGER

@<TRIPOS>ATOM
      1 N          12.8222   38.4638    8.7558 N.pl3   1  UNL1       -0.2781
      2 H          12.0885   37.8526    8.9954 H       1  UNL1        0.1555
      3 C          12.4635   39.6654    8.0683 C.ar    1  UNL1        0.1361
      4 C          13.4179   40.6722    7.9289 C.ar    1  UNL1        0.0492
      5 C          13.0713   41.8334    7.2422 C.ar    1  UNL1        0.0641
      6 C          10.9003   40.9742    6.8685 C.ar    1  UNL1        0.1406
      7 C           9.5376   41.1482    6.3031 C.3     1  UNL1        0.0737
      8 N          11.8205   41.9631    6.7248 N.ar    1  UNL1       -0.2349
      9 N          11.2227   39.8342    7.5357 N.ar    1  UNL1       -0.2159
     10 C          14.0787   42.9231    7.0862 C.3     1  UNL1        0.0564
     11 C          13.7544   43.7990    5.8739 C.3     1  UNL1        0.0087
     12 C          14.9518   44.6387    5.4201 C.3     1  UNL1        0.0178
     13 C          16.0180   44.7229    6.5118 C.3     1  UNL1        0.0731
     14 C          15.4990   42.3550    6.9850 C.3     1  UNL1        0.0789
     15 N          16.5421   43.3912    6.8492 N.3     1  UNL1       -0.2596
     16 C          17.1942   43.5133    8.1429 C.3     1  UNL1        0.1795
     17 C          17.3742   42.1848    8.7355 C.1     1  UNL1        0.0912
     18 N          17.5189   41.1362    9.2045 N.1     1  UNL1       -0.1944
     19 C          16.0635   36.9085    9.1284 C.ar    1  UNL1        0.1434
     20 C          16.3538   37.7860   10.1777 C.ar    1  UNL1        0.0619
     21 C          14.1440   38.0643    9.1289 C.ar    1  UNL1        0.1648
     22 S          15.0108   38.7830   10.3660 S.2     1  UNL1       -0.0507
     23 N          14.8373   37.0613    8.5513 N.ar    1  UNL1       -0.2193
     24 C          17.0125   35.8610    8.7006 C.2     1  UNL1        0.2710
     25 C          15.3653   34.1398    7.9836 C.3     1  UNL1        0.0989
     26 C          14.8200   32.8080    8.4841 C.3     1  UNL1        0.0266
     27 C          15.8446   31.7064    8.2450 C.3     1  UNL1        0.0294
     28 C          17.1696   32.0646    8.8476 C.ar    1  UNL1       -0.0084
     29 C          18.0419   31.0381    9.2203 C.ar    1  UNL1       -0.0030
     30 C          19.2818   31.3405    9.7885 C.ar    1  UNL1       -0.0002
     31 C          19.6524   32.6713    9.9912 C.ar    1  UNL1        0.0013
     32 C          18.7865   33.7018    9.6179 C.ar    1  UNL1        0.0146
     33 C          17.5424   33.4152    9.0284 C.ar    1  UNL1        0.0502
     34 N          16.6258   34.4744    8.6540 N.am    1  UNL1       -0.2542
     35 O          18.1827   36.1951    8.3678 O.2     1  UNL1       -0.2679
@<TRIPOS>BOND
     1    19    24    1
     2    19    23   ar
     3    20    22   ar
     4    21    22   ar
     5    21     1    1
     6     3     9   ar
     7     4     5   ar
     8    10     5    1
     9    10    11    1
    10    11    12    1
    11    12    13    1
    12    13    15    1
    13    16    15    1
    14    16    17    1
    15    14    15    1
    16    14    10    1
    17     6     8   ar
    18     7     6    1
    19    24    34   am
    20    25    34    1
    21    25    26    1
    22    26    27    1
    23    27    28    1
    24    29    30   ar
    25    31    32   ar
    26    33    34    1
    27    33    28   ar
    28     1     3    1
    29    19    20   ar
    30    21    23   ar
    31     3     4   ar
    32     5     8   ar
    33     6     9   ar
    34    24    35    2
    35    28    29   ar
    36    30    31   ar
    37    32    33   ar
    38    17    18    3
    39     1     2    1
@<TRIPOS>MOLECULE
Molport-047-073-947 MCULE-8851065548 PubChem-132767947
 35 39 0 0 0
SMALL
GASTEIGER

@<TRIPOS>ATOM
      1 N          14.7431   34.5883    8.6310 N.pl3   1  UNL1       -0.2781
      2 H          14.2008   33.7793    8.4873 H       1  UNL1        0.1555
      3 C          16.1261   34.5105    8.2755 C.ar    1  UNL1        0.1361
      4 C          16.5269   34.9755    7.0236 C.ar    1  UNL1        0.0492
      5 C          17.8774   34.9160    6.6879 C.ar    1  UNL1        0.0641
      6 C          18.3676   33.9607    8.7946 C.ar    1  UNL1        0.1406
      7 C          19.3657   33.4027    9.7429 C.3     1  UNL1        0.0737
      8 N          18.7722   34.4107    7.5784 N.ar    1  UNL1       -0.2349
      9 N          17.0530   34.0121    9.1382 N.ar    1  UNL1       -0.2159
     10 C          18.3244   35.4057    5.3511 C.3     1  UNL1        0.0564
     11 C          19.2893   36.5849    5.4946 C.3     1  UNL1        0.0087
     12 C          19.4359   37.3838    4.1965 C.3     1  UNL1        0.0178
     13 C          18.9368   36.5856    2.9926 C.3     1  UNL1        0.0731
     14 C          17.1278   35.7836    4.4703 C.3     1  UNL1        0.0789
     15 N          17.5098   36.2570    3.1249 N.3     1  UNL1       -0.2596
     16 C          17.2427   35.1698    2.1974 C.3     1  UNL1        0.1795
     17 C          17.7642   35.5099    0.8704 C.1     1  UNL1        0.0912
     18 N          18.1771   35.7760   -0.1780 N.1     1  UNL1       -0.1944
     19 C          13.5809   37.8763    9.5810 C.ar    1  UNL1        0.1434
     20 C          12.6138   37.2873   10.4016 C.ar    1  UNL1        0.0619
     21 C          14.0717   35.7280    9.1753 C.ar    1  UNL1        0.1648
     22 S          12.7974   35.6207   10.2536 S.2     1  UNL1       -0.0507
     23 N          14.3903   37.0111    8.9057 N.ar    1  UNL1       -0.2193
     24 C          13.7359   39.3416    9.4839 C.2     1  UNL1        0.2710
     25 C          11.8621   39.8088    7.9152 C.3     1  UNL1        0.0989
     26 C          11.6703   40.1848    6.4512 C.3     1  UNL1        0.0266
     27 C          12.0059   41.6566    6.2465 C.3     1  UNL1        0.0294
     28 C          13.3782   41.9716    6.7610 C.ar    1  UNL1       -0.0084
     29 C          14.0746   43.0514    6.2108 C.ar    1  UNL1       -0.0030
     30 C          15.3569   43.3669    6.6664 C.ar    1  UNL1       -0.0002
     31 C          15.9505   42.6002    7.6712 C.ar    1  UNL1        0.0013
     32 C          15.2586   41.5218    8.2274 C.ar    1  UNL1        0.0146
     33 C          13.9601   41.2017    7.7927 C.ar    1  UNL1        0.0502
     34 N          13.2381   40.0734    8.3476 N.am    1  UNL1       -0.2542
     35 O          14.3142   39.9587   10.4202 O.2     1  UNL1       -0.2679
@<TRIPOS>BOND
     1    19    24    1
     2    19    23   ar
     3    20    22   ar
     4    21    22   ar
     5    21     1    1
     6     3     9   ar
     7     4     5   ar
     8    10     5    1
     9    10    11    1
    10    11    12    1
    11    12    13    1
    12    13    15    1
    13    16    15    1
    14    16    17    1
    15    14    15    1
    16    14    10    1
    17     6     8   ar
    18     7     6    1
    19    24    34   am
    20    25    34    1
    21    25    26    1
    22    26    27    1
    23    27    28    1
    24    29    30   ar
    25    31    32   ar
    26    33    34    1
    27    33    28   ar
    28     1     3    1
    29    19    20   ar
    30    21    23   ar
    31     3     4   ar
    32     5     8   ar
    33     6     9   ar
    34    24    35    2
    35    28    29   ar
    36    30    31   ar
    37    32    33   ar
    38    17    18    3
    39     1     2    1
@<TRIPOS>MOLECULE
Molport-047-073-947 MCULE-8851065548 PubChem-132767947
 35 39 0 0 0
SMALL
GASTEIGER

@<TRIPOS>ATOM
      1 N          11.3628   41.2236   10.2327 N.pl3   1  UNL1       -0.2781
      2 H          11.6446   42.0340    9.7499 H       1  UNL1        0.1555
      3 C          10.1993   41.3344   11.0569 C.ar    1  UNL1        0.1361
      4 C           8.9780   41.6442   10.4599 C.ar    1  UNL1        0.0492
      5 C           7.8433   41.7326   11.2627 C.ar    1  UNL1        0.0641
      6 C           9.1423   41.2162   13.1699 C.ar    1  UNL1        0.1406
      7 C           9.2266   40.9973   14.6368 C.3     1  UNL1        0.0737
      8 N           7.9457   41.5170   12.6014 N.ar    1  UNL1       -0.2349
      9 N          10.2595   41.1257   12.4003 N.ar    1  UNL1       -0.2159
     10 C           6.5281   42.0668   10.6419 C.3     1  UNL1        0.0564
     11 C           5.4473   41.0772   11.0829 C.3     1  UNL1        0.0087
     12 C           4.2189   41.1049   10.1691 C.3     1  UNL1        0.0178
     13 C           4.1856   42.3751    9.3200 C.3     1  UNL1        0.0731
     14 C           6.6329   42.1152    9.1131 C.3     1  UNL1        0.0789
     15 N           5.3633   42.4622    8.4440 N.3     1  UNL1       -0.2596
     16 C           5.4685   43.8490    8.0204 C.3     1  UNL1        0.1795
     17 C           4.1572   44.4973    8.1134 C.1     1  UNL1        0.0912
     18 N           3.1208   45.0079    8.1892 N.1     1  UNL1       -0.1944
     19 C          13.9613   38.7779    9.6579 C.ar    1  UNL1        0.1434
     20 C          13.0108   37.7574    9.7612 C.ar    1  UNL1        0.0619
     21 C          12.1565   40.0491   10.0421 C.ar    1  UNL1        0.1648
     22 S          11.5292   38.4985   10.0588 S.2     1  UNL1       -0.0507
     23 N          13.4855   40.0469    9.8097 N.ar    1  UNL1       -0.2193
     24 C          15.3813   38.4965    9.3665 C.2     1  UNL1        0.2710
     25 C          15.0864   36.3727    8.1047 C.3     1  UNL1        0.0989
     26 C          15.3025   34.8802    8.3221 C.3     1  UNL1        0.0266
     27 C          16.7871   34.5526    8.2255 C.3     1  UNL1        0.0294
     28 C          17.5881   35.4066    9.1614 C.ar    1  UNL1       -0.0084
     29 C          18.8170   34.9301    9.6266 C.ar    1  UNL1       -0.0030
     30 C          19.5840   35.7012   10.5033 C.ar    1  UNL1       -0.0002
     31 C          19.1226   36.9505   10.9227 C.ar    1  UNL1        0.0013
     32 C          17.8968   37.4338   10.4590 C.ar    1  UNL1        0.0146
     33 C          17.1207   36.6781    9.5623 C.ar    1  UNL1        0.0502
     34 N          15.8377   37.1590    9.0882 N.am    1  UNL1       -0.2542
     35 O          16.2051   39.4521    9.3598 O.2     1  UNL1       -0.2679
@<TRIPOS>BOND
     1    19    24    1
     2    19    23   ar
     3    20    22   ar
     4    21    22   ar
     5    21     1    1
     6     3     9   ar
     7     4     5   ar
     8    10     5    1
     9    10    11    1
    10    11    12    1
    11    12    13    1
    12    13    15    1
    13    16    15    1
    14    16    17    1
    15    14    15    1
    16    14    10    1
    17     6     8   ar
    18     7     6    1
    19    24    34   am
    20    25    34    1
    21    25    26    1
    22    26    27    1
    23    27    28    1
    24    29    30   ar
    25    31    32   ar
    26    33    34    1
    27    33    28   ar
    28     1     3    1
    29    19    20   ar
    30    21    23   ar
    31     3     4   ar
    32     5     8   ar
    33     6     9   ar
    34    24    35    2
    35    28    29   ar
    36    30    31   ar
    37    32    33   ar
    38    17    18    3
    39     1     2    1
@<TRIPOS>MOLECULE
Molport-047-073-947 MCULE-8851065548 PubChem-132767947
 35 39 0 0 0
SMALL
GASTEIGER

@<TRIPOS>ATOM
      1 N           9.6044   37.6625    8.0189 N.pl3   1  UNL1       -0.2781
      2 H           9.1378   36.8111    8.1824 H       1  UNL1        0.1555
      3 C           9.0587   38.5146    7.0083 C.ar    1  UNL1        0.1361
      4 C           8.2048   39.5491    7.3885 C.ar    1  UNL1        0.0492
      5 C           7.6902   40.3890    6.4037 C.ar    1  UNL1        0.0641
      6 C           8.8596   39.1749    4.7454 C.ar    1  UNL1        0.1406
      7 C           9.2005   38.9707    3.3140 C.3     1  UNL1        0.0737
      8 N           8.0267   40.1872    5.1017 N.ar    1  UNL1       -0.2349
      9 N           9.3709   38.3463    5.6945 N.ar    1  UNL1       -0.2159
     10 C           6.7718   41.4994    6.7914 C.3     1  UNL1        0.0564
     11 C           7.2457   42.8315    6.2058 C.3     1  UNL1        0.0087
     12 C           6.6122   44.0377    6.9050 C.3     1  UNL1        0.0178
     13 C           5.3737   43.6312    7.7027 C.3     1  UNL1        0.0731
     14 C           6.6273   41.5932    8.3148 C.3     1  UNL1        0.0789
     15 N           5.7121   42.6641    8.7572 N.3     1  UNL1       -0.2596
     16 C           4.4679   42.0258    9.1550 C.3     1  UNL1        0.1795
     17 C           4.6691   41.2790   10.4001 C.1     1  UNL1        0.0912
     18 N           4.8288   40.6869   11.3821 N.1     1  UNL1       -0.1944
     19 C          12.5355   39.0241    9.6371 C.ar    1  UNL1        0.1434
     20 C          12.6686   37.8413   10.3710 C.ar    1  UNL1        0.0619
     21 C          10.7626   37.9278    8.8152 C.ar    1  UNL1        0.1648
     22 S          11.4040   36.8328    9.9050 S.2     1  UNL1       -0.0507
     23 N          11.4816   39.0687    8.7727 N.ar    1  UNL1       -0.2193
     24 C          13.4984   40.1363    9.7663 C.2     1  UNL1        0.2710
     25 C          12.5746   41.6319    8.0057 C.3     1  UNL1        0.0989
     26 C          12.9305   42.0843    6.5949 C.3     1  UNL1        0.0266
     27 C          14.0641   43.1005    6.6476 C.3     1  UNL1        0.0294
     28 C          15.2376   42.5578    7.4061 C.ar    1  UNL1       -0.0084
     29 C          16.5132   43.0542    7.1229 C.ar    1  UNL1       -0.0030
     30 C          17.6267   42.5649    7.8100 C.ar    1  UNL1       -0.0002
     31 C          17.4698   41.5729    8.7800 C.ar    1  UNL1        0.0013
     32 C          16.1974   41.0750    9.0700 C.ar    1  UNL1        0.0146
     33 C          15.0640   41.5692    8.4003 C.ar    1  UNL1        0.0502
     34 N          13.7398   41.0477    8.6775 N.am    1  UNL1       -0.2542
     35 O          14.1160   40.2868   10.8561 O.2     1  UNL1       -0.2679
@<TRIPOS>BOND
     1    19    24    1
     2    19    23   ar
     3    20    22   ar
     4    21    22   ar
     5    21     1    1
     6     3     9   ar
     7     4     5   ar
     8    10     5    1
     9    10    11    1
    10    11    12    1
    11    12    13    1
    12    13    15    1
    13    16    15    1
    14    16    17    1
    15    14    15    1
    16    14    10    1
    17     6     8   ar
    18     7     6    1
    19    24    34   am
    20    25    34    1
    21    25    26    1
    22    26    27    1
    23    27    28    1
    24    29    30   ar
    25    31    32   ar
    26    33    34    1
    27    33    28   ar
    28     1     3    1
    29    19    20   ar
    30    21    23   ar
    31     3     4   ar
    32     5     8   ar
    33     6     9   ar
    34    24    35    2
    35    28    29   ar
    36    30    31   ar
    37    32    33   ar
    38    17    18    3
    39     1     2    1
@<TRIPOS>MOLECULE
Molport-047-073-947 MCULE-8851065548 PubChem-132767947
 35 39 0 0 0
SMALL
GASTEIGER

@<TRIPOS>ATOM
      1 N           8.0920   42.9394    7.5675 N.pl3   1  UNL1       -0.2781
      2 H           8.2467   42.8626    6.5983 H       1  UNL1        0.1555
      3 C           6.7670   43.2781    7.9855 C.ar    1  UNL1        0.1361
      4 C           6.2180   42.6182    9.0843 C.ar    1  UNL1        0.0492
      5 C           4.9345   42.9639    9.5006 C.ar    1  UNL1        0.0641
      6 C           4.7937   44.5641    7.7654 C.ar    1  UNL1        0.1406
      7 C           4.0144   45.6068    7.0497 C.3     1  UNL1        0.0737
      8 N           4.2466   43.9296    8.8347 N.ar    1  UNL1       -0.2349
      9 N           6.0456   44.2388    7.3464 N.ar    1  UNL1       -0.2159
     10 C           4.3292   42.2659   10.6724 C.3     1  UNL1        0.0564
     11 C           4.7925   40.8089   10.7409 C.3     1  UNL1        0.0087
     12 C           3.8953   39.9500   11.6366 C.3     1  UNL1        0.0178
     13 C           3.0373   40.8157   12.5585 C.3     1  UNL1        0.0731
     14 C           2.7989   42.3512   10.6389 C.3     1  UNL1        0.0789
     15 N           2.1446   41.6936   11.7876 N.3     1  UNL1       -0.2596
     16 C           1.7092   42.7458   12.6914 C.3     1  UNL1        0.1795
     17 C           0.7334   42.2093   13.6445 C.1     1  UNL1        0.0912
     18 N          -0.0358   41.7833   14.3977 N.1     1  UNL1       -0.1944
     19 C          11.1259   41.8037    9.1707 C.ar    1  UNL1        0.1434
     20 C          10.8780   42.6749   10.2361 C.ar    1  UNL1        0.0619
     21 C           9.2143   42.7013    8.4217 C.ar    1  UNL1        0.1648
     22 S           9.4446   43.4831    9.8825 S.2     1  UNL1       -0.0507
     23 N          10.2010   41.8166    8.1685 N.ar    1  UNL1       -0.2193
     24 C          12.2958   40.9028    9.1539 C.2     1  UNL1        0.2710
     25 C          11.0949   38.7418    8.8749 C.3     1  UNL1        0.0989
     26 C          10.7353   37.5228    9.7152 C.3     1  UNL1        0.0266
     27 C          11.9635   36.6406    9.8997 C.3     1  UNL1        0.0294
     28 C          13.1101   37.4261   10.4612 C.ar    1  UNL1       -0.0084
     29 C          14.0945   36.7556   11.1925 C.ar    1  UNL1       -0.0030
     30 C          15.1727   37.4611   11.7321 C.ar    1  UNL1       -0.0002
     31 C          15.2683   38.8418   11.5468 C.ar    1  UNL1        0.0013
     32 C          14.2894   39.5173   10.8143 C.ar    1  UNL1        0.0146
     33 C          13.2071   38.8195   10.2493 C.ar    1  UNL1        0.0502
     34 N          12.1738   39.5108    9.5032 N.am    1  UNL1       -0.2542
     35 O          13.4210   41.3679    8.8231 O.2     1  UNL1       -0.2679
@<TRIPOS>BOND
     1    19    24    1
     2    19    23   ar
     3    20    22   ar
     4    21    22   ar
     5    21     1    1
     6     3     9   ar
     7     4     5   ar
     8    10     5    1
     9    10    11    1
    10    11    12    1
    11    12    13    1
    12    13    15    1
    13    16    15    1
    14    16    17    1
    15    14    15    1
    16    14    10    1
    17     6     8   ar
    18     7     6    1
    19    24    34   am
    20    25    34    1
    21    25    26    1
    22    26    27    1
    23    27    28    1
    24    29    30   ar
    25    31    32   ar
    26    33    34    1
    27    33    28   ar
    28     1     3    1
    29    19    20   ar
    30    21    23   ar
    31     3     4   ar
    32     5     8   ar
    33     6     9   ar
    34    24    35    2
    35    28    29   ar
    36    30    31   ar
    37    32    33   ar
    38    17    18    3
    39     1     2    1
@<TRIPOS>MOLECULE
Molport-047-073-947 MCULE-8851065548 PubChem-132767947
 35 39 0 0 0
SMALL
GASTEIGER

@<TRIPOS>ATOM
      1 N           7.7302   41.9420    6.9372 N.pl3   1  UNL1       -0.2781
      2 H           7.5741   41.5687    6.0396 H       1  UNL1        0.1555
      3 C           6.6286   42.6076    7.5606 C.ar    1  UNL1        0.1361
      4 C           6.0704   42.0529    8.7116 C.ar    1  UNL1        0.0492
      5 C           5.0100   42.7137    9.3272 C.ar    1  UNL1        0.0641
      6 C           5.0959   44.4058    7.6777 C.ar    1  UNL1        0.1406
      7 C           4.5572   45.6717    7.1172 C.3     1  UNL1        0.0737
      8 N           4.5428   43.8769    8.8000 N.ar    1  UNL1       -0.2349
      9 N           6.1319   43.7735    7.0647 N.ar    1  UNL1       -0.2159
     10 C           4.3976   42.1332   10.5579 C.3     1  UNL1        0.0564
     11 C           4.8625   40.6910   10.7728 C.3     1  UNL1        0.0087
     12 C           3.9604   39.9226   11.7425 C.3     1  UNL1        0.0178
     13 C           3.0947   40.8730   12.5689 C.3     1  UNL1        0.0731
     14 C           2.8674   42.2115   10.5058 C.3     1  UNL1        0.0789
     15 N           2.2062   41.6688   11.7092 N.3     1  UNL1       -0.2596
     16 C           1.7629   42.8040   12.5020 C.3     1  UNL1        0.1795
     17 C           0.8288   42.3520   13.5372 C.1     1  UNL1        0.0912
     18 N           0.0914   41.9974   14.3563 N.1     1  UNL1       -0.1944
     19 C          11.2726   41.6610    7.5980 C.ar    1  UNL1        0.1434
     20 C          10.9889   41.3234    8.9250 C.ar    1  UNL1        0.0619
     21 C           9.0369   41.7662    7.4918 C.ar    1  UNL1        0.1648
     22 S           9.3134   41.3395    9.0853 S.2     1  UNL1       -0.0507
     23 N          10.1899   41.9019    6.8044 N.ar    1  UNL1       -0.2193
     24 C          12.6559   41.7157    7.0843 C.2     1  UNL1        0.2710
     25 C          13.6943   40.0770    8.6420 C.3     1  UNL1        0.0989
     26 C          14.6222   40.0856    9.8504 C.3     1  UNL1        0.0266
     27 C          16.0561   40.3344    9.4002 C.3     1  UNL1        0.0294
     28 C          16.1516   41.5820    8.5748 C.ar    1  UNL1       -0.0084
     29 C          17.3675   42.2699    8.5282 C.ar    1  UNL1       -0.0030
     30 C          17.4861   43.4380    7.7713 C.ar    1  UNL1       -0.0002
     31 C          16.3871   43.9263    7.0617 C.ar    1  UNL1        0.0013
     32 C          15.1702   43.2418    7.1015 C.ar    1  UNL1        0.0146
     33 C          15.0388   42.0549    7.8441 C.ar    1  UNL1        0.0502
     34 N          13.7763   41.3448    7.9100 N.am    1  UNL1       -0.2542
     35 O          12.8526   42.0928    5.8964 O.2     1  UNL1       -0.2679
@<TRIPOS>BOND
     1    19    24    1
     2    19    23   ar
     3    20    22   ar
     4    21    22   ar
     5    21     1    1
     6     3     9   ar
     7     4     5   ar
     8    10     5    1
     9    10    11    1
    10    11    12    1
    11    12    13    1
    12    13    15    1
    13    16    15    1
    14    16    17    1
    15    14    15    1
    16    14    10    1
    17     6     8   ar
    18     7     6    1
    19    24    34   am
    20    25    34    1
    21    25    26    1
    22    26    27    1
    23    27    28    1
    24    29    30   ar
    25    31    32   ar
    26    33    34    1
    27    33    28   ar
    28     1     3    1
    29    19    20   ar
    30    21    23   ar
    31     3     4   ar
    32     5     8   ar
    33     6     9   ar
    34    24    35    2
    35    28    29   ar
    36    30    31   ar
    37    32    33   ar
    38    17    18    3
    39     1     2    1
@<TRIPOS>MOLECULE
Molport-047-073-947 MCULE-8851065548 PubChem-132767947
 35 39 0 0 0
SMALL
GASTEIGER

@<TRIPOS>ATOM
      1 N          11.0551   40.3962    9.8143 N.pl3   1  UNL1       -0.2781
      2 H          10.9934   40.6808    8.8739 H       1  UNL1        0.1555
      3 C          10.0197   40.8431   10.6938 C.ar    1  UNL1        0.1361
      4 C           8.8375   41.3386   10.1454 C.ar    1  UNL1        0.0492
      5 C           7.8235   41.7552   11.0047 C.ar    1  UNL1        0.0641
      6 C           9.1601   41.1871   12.8707 C.ar    1  UNL1        0.1406
      7 C           9.3329   41.1185   14.3446 C.3     1  UNL1        0.0737
      8 N           8.0028   41.6717   12.3500 N.ar    1  UNL1       -0.2349
      9 N          10.1596   40.7759   12.0457 N.ar    1  UNL1       -0.2159
     10 C           6.5526   42.2918   10.4359 C.3     1  UNL1        0.0564
     11 C           5.3385   41.7109   11.1643 C.3     1  UNL1        0.0087
     12 C           4.0412   41.8800   10.3686 C.3     1  UNL1        0.0178
     13 C           4.1935   42.9351    9.2736 C.3     1  UNL1        0.0731
     14 C           6.4637   42.0257    8.9287 C.3     1  UNL1        0.0789
     15 N           5.2333   42.5539    8.3064 N.3     1  UNL1       -0.2596
     16 C           5.6022   43.7637    7.5895 C.3     1  UNL1        0.1795
     17 C           6.5602   43.4395    6.5287 C.1     1  UNL1        0.0912
     18 N           7.3188   43.1852    5.6917 N.1     1  UNL1       -0.1944
     19 C          13.6822   37.9250   10.0502 C.ar    1  UNL1        0.1434
     20 C          14.1083   38.5058   11.2487 C.ar    1  UNL1        0.0619
     21 C          12.1717   39.5757   10.1692 C.ar    1  UNL1        0.1648
     22 S          13.0869   39.8093   11.5497 S.2     1  UNL1       -0.0507
     23 N          12.6067   38.5164    9.4557 N.ar    1  UNL1       -0.2193
     24 C          14.3350   36.7259    9.4875 C.2     1  UNL1        0.2710
     25 C          16.6275   37.1000   10.3789 C.3     1  UNL1        0.0989
     26 C          17.9933   37.5334    9.8610 C.3     1  UNL1        0.0266
     27 C          18.6437   36.3885    9.0951 C.3     1  UNL1        0.0294
     28 C          17.7373   35.8815    8.0142 C.ar    1  UNL1       -0.0084
     29 C          18.3007   35.2584    6.8971 C.ar    1  UNL1       -0.0030
     30 C          17.4821   34.7797    5.8713 C.ar    1  UNL1       -0.0002
     31 C          16.0962   34.9268    5.9561 C.ar    1  UNL1        0.0013
     32 C          15.5267   35.5457    7.0713 C.ar    1  UNL1        0.0146
     33 C          16.3352   36.0172    8.1209 C.ar    1  UNL1        0.0502
     34 N          15.7589   36.6789    9.2752 N.am    1  UNL1       -0.2542
     35 O          13.6256   35.7253    9.1920 O.2     1  UNL1       -0.2679
@<TRIPOS>BOND
     1    19    24    1
     2    19    23   ar
     3    20    22   ar
     4    21    22   ar
     5    21     1    1
     6     3     9   ar
     7     4     5   ar
     8    10     5    1
     9    10    11    1
    10    11    12    1
    11    12    13    1
    12    13    15    1
    13    16    15    1
    14    16    17    1
    15    14    15    1
    16    14    10    1
    17     6     8   ar
    18     7     6    1
    19    24    34   am
    20    25    34    1
    21    25    26    1
    22    26    27    1
    23    27    28    1
    24    29    30   ar
    25    31    32   ar
    26    33    34    1
    27    33    28   ar
    28     1     3    1
    29    19    20   ar
    30    21    23   ar
    31     3     4   ar
    32     5     8   ar
    33     6     9   ar
    34    24    35    2
    35    28    29   ar
    36    30    31   ar
    37    32    33   ar
    38    17    18    3
    39     1     2    1
