@<TRIPOS>MOLECULE
Molport-020-279-143 MCULE-5768605864 MCULE-8724888574 PubChem-110255897
 28 30 0 0 0
SMALL
GASTEIGER

@<TRIPOS>ATOM
      1 C          16.4014   41.9227    8.3437 C.ar    1  UNL1        0.1357
      2 C          14.1048   42.0131    7.7637 C.ar    1  UNL1        0.1414
      3 C          15.5685   43.6602    6.9084 C.ar    1  UNL1        0.0635
      4 C          16.6386   43.0670    7.5745 C.ar    1  UNL1        0.0492
      5 C          15.7889   44.8765    6.0838 C.3     1  UNL1        0.0522
      6 N          15.1392   41.4237    8.4194 N.ar    1  UNL1       -0.2159
      7 N          14.3247   43.1267    7.0129 N.ar    1  UNL1       -0.2348
      8 C          12.7351   41.4310    7.8765 C.3     1  UNL1        0.0785
      9 C          12.7114   40.3006    8.9073 C.3     1  UNL1        0.0110
     10 C          11.3068   39.7115    9.0188 C.3     1  UNL1        0.0220
     11 C          10.8481   39.1978    7.6575 C.3     1  UNL1        0.0935
     12 C          12.2512   40.9294    6.5159 C.3     1  UNL1        0.1009
     13 C           9.8256   40.6875    5.8943 C.2     1  UNL1        0.2418
     14 N          10.9578   40.2698    6.6712 N.am    1  UNL1       -0.2780
     15 O           9.9436   41.6182    5.0529 O.2     1  UNL1       -0.2734
     16 C           8.5027   40.0118    6.0400 C.3     1  UNL1        0.1552
     17 C           9.3415   38.7455    4.2745 C.3     1  UNL1        0.0862
     18 N           8.1387   39.3749    4.7871 N.3     1  UNL1       -0.2886
     19 H           7.7969   40.0713    4.1250 H       1  UNL1        0.1237
     20 N          17.4532   41.2574    9.0578 N.pl3   1  UNL1       -0.2833
     21 H          18.3438   41.6742    9.0103 H       1  UNL1        0.1550
     22 C          14.7924   38.1933   11.8085 C.3     1  UNL1        0.0521
     23 C          16.0861   38.5510   11.1711 C.ar    1  UNL1        0.0608
     24 C          17.3556   40.0549    9.8327 C.ar    1  UNL1        0.1328
     25 C          18.4855   39.2441    9.9702 C.ar    1  UNL1        0.0344
     26 C          18.4022   38.0710   10.7224 C.ar    1  UNL1        0.0041
     27 C          17.1957   37.7184   11.3286 C.ar    1  UNL1        0.0148
     28 N          16.1884   39.6896   10.4343 N.ar    1  UNL1       -0.2349
@<TRIPOS>BOND
     1    22    23    1
     2    24    28   ar
     3    24    20    1
     4    25    26   ar
     5    27    23   ar
     6     2     6   ar
     7     3     7   ar
     8     4     1   ar
     9     5     3    1
    10     8     2    1
    11     8     9    1
    12     9    10    1
    13    10    11    1
    14    11    14    1
    15    12    14    1
    16    12     8    1
    17    16    13    1
    18    16    18    1
    19    17    18    1
    20    20     1    1
    21    14    13   am
    22    23    28   ar
    23    24    25   ar
    24    26    27   ar
    25     1     6   ar
    26     2     7   ar
    27     3     4   ar
    28    13    15    2
    29    20    21    1
    30    18    19    1
@<TRIPOS>MOLECULE
Molport-020-279-143 MCULE-5768605864 MCULE-8724888574 PubChem-110255897
 28 30 0 0 0
SMALL
GASTEIGER

@<TRIPOS>ATOM
      1 C          16.6251   41.7804    8.6341 C.ar    1  UNL1        0.1357
      2 C          14.5342   41.9869    7.5365 C.ar    1  UNL1        0.1414
      3 C          16.2747   43.4853    6.9778 C.ar    1  UNL1        0.0635
      4 C          17.1171   42.8622    7.8958 C.ar    1  UNL1        0.0492
      5 C          16.7685   44.6369    6.1790 C.3     1  UNL1        0.0522
      6 N          15.3446   41.3692    8.4360 N.ar    1  UNL1       -0.2159
      7 N          15.0029   43.0402    6.8134 N.ar    1  UNL1       -0.2348
      8 C          13.1346   41.5019    7.3530 C.3     1  UNL1        0.0785
      9 C          12.6909   41.6692    5.8983 C.3     1  UNL1        0.0110
     10 C          11.2593   41.1691    5.7178 C.3     1  UNL1        0.0220
     11 C          10.3207   41.9295    6.6496 C.3     1  UNL1        0.0935
     12 C          12.1829   42.2397    8.2946 C.3     1  UNL1        0.1009
     13 C           9.9799   41.3071    9.0724 C.2     1  UNL1        0.2418
     14 N          10.8094   41.8259    8.0223 N.am    1  UNL1       -0.2780
     15 O          10.4253   41.2227   10.2482 O.2     1  UNL1       -0.2734
     16 C           8.5717   40.8913    8.8042 C.3     1  UNL1        0.1552
     17 C           7.5865   39.7748    7.0134 C.3     1  UNL1        0.0862
     18 N           8.5632   39.6346    8.0772 N.3     1  UNL1       -0.2886
     19 H           8.2986   38.8705    8.6990 H       1  UNL1        0.1237
     20 N          17.4333   41.0892    9.5973 N.pl3   1  UNL1       -0.2833
     21 H          18.2685   41.5358    9.8664 H       1  UNL1        0.1550
     22 C          14.2915   38.0175   11.7718 C.3     1  UNL1        0.0521
     23 C          15.6590   38.3125   11.2710 C.ar    1  UNL1        0.0608
     24 C          17.1640   39.8225   10.2129 C.ar    1  UNL1        0.1328
     25 C          18.1996   38.8912   10.3274 C.ar    1  UNL1        0.0344
     26 C          17.9489   37.6547   10.9251 C.ar    1  UNL1        0.0041
     27 C          16.6708   37.3595   11.4014 C.ar    1  UNL1        0.0148
     28 N          15.9241   39.5113   10.6858 N.ar    1  UNL1       -0.2349
@<TRIPOS>BOND
     1    22    23    1
     2    24    28   ar
     3    24    20    1
     4    25    26   ar
     5    27    23   ar
     6     2     6   ar
     7     3     7   ar
     8     4     1   ar
     9     5     3    1
    10     8     2    1
    11     8     9    1
    12     9    10    1
    13    10    11    1
    14    11    14    1
    15    12    14    1
    16    12     8    1
    17    16    13    1
    18    16    18    1
    19    17    18    1
    20    20     1    1
    21    14    13   am
    22    23    28   ar
    23    24    25   ar
    24    26    27   ar
    25     1     6   ar
    26     2     7   ar
    27     3     4   ar
    28    13    15    2
    29    20    21    1
    30    18    19    1
@<TRIPOS>MOLECULE
Molport-020-279-143 MCULE-5768605864 MCULE-8724888574 PubChem-110255897
 28 30 0 0 0
SMALL
GASTEIGER

@<TRIPOS>ATOM
      1 C          13.1054   41.0543    8.5454 C.ar    1  UNL1        0.1357
      2 C          11.2964   41.2487   10.0649 C.ar    1  UNL1        0.1414
      3 C          13.1758   39.9540   10.6801 C.ar    1  UNL1        0.0635
      4 C          13.7839   40.2420    9.4603 C.ar    1  UNL1        0.0492
      5 C          13.8715   39.0940   11.6723 C.3     1  UNL1        0.0522
      6 N          11.8773   41.5379    8.8706 N.ar    1  UNL1       -0.2159
      7 N          11.9478   40.4592   10.9618 N.ar    1  UNL1       -0.2348
      8 C           9.9458   41.8008   10.3788 C.3     1  UNL1        0.0785
      9 C           9.5054   41.3859   11.7840 C.3     1  UNL1        0.0110
     10 C           8.1241   41.9561   12.0990 C.3     1  UNL1        0.0220
     11 C           7.1135   41.4747   11.0625 C.3     1  UNL1        0.0935
     12 C           8.9239   41.3446    9.3374 C.3     1  UNL1        0.1009
     13 C           6.8007   42.5901    8.8194 C.2     1  UNL1        0.2418
     14 N           7.5941   41.8075    9.7237 N.am    1  UNL1       -0.2780
     15 O           7.2387   42.8688    7.6711 O.2     1  UNL1       -0.2734
     16 C           5.4364   43.0587    9.2029 C.3     1  UNL1        0.1552
     17 C           4.0891   44.5878    8.0755 C.3     1  UNL1        0.0862
     18 N           5.2932   44.4661    8.8760 N.3     1  UNL1       -0.2886
     19 H           6.1025   44.7877    8.3449 H       1  UNL1        0.1237
     20 N          13.6680   41.3938    7.2698 N.pl3   1  UNL1       -0.2833
     21 H          13.4710   40.7768    6.5283 H       1  UNL1        0.1550
     22 C          17.8251   43.9237    7.8634 C.3     1  UNL1        0.0521
     23 C          16.4932   43.7761    7.2215 C.ar    1  UNL1        0.0608
     24 C          14.4842   42.5289    6.9514 C.ar    1  UNL1        0.1328
     25 C          14.0047   43.4738    6.0402 C.ar    1  UNL1        0.0344
     26 C          14.7907   44.5829    5.7227 C.ar    1  UNL1        0.0041
     27 C          16.0445   44.7387    6.3154 C.ar    1  UNL1        0.0148
     28 N          15.7118   42.7029    7.5173 N.ar    1  UNL1       -0.2349
@<TRIPOS>BOND
     1    22    23    1
     2    24    28   ar
     3    24    20    1
     4    25    26   ar
     5    27    23   ar
     6     2     6   ar
     7     3     7   ar
     8     4     1   ar
     9     5     3    1
    10     8     2    1
    11     8     9    1
    12     9    10    1
    13    10    11    1
    14    11    14    1
    15    12    14    1
    16    12     8    1
    17    16    13    1
    18    16    18    1
    19    17    18    1
    20    20     1    1
    21    14    13   am
    22    23    28   ar
    23    24    25   ar
    24    26    27   ar
    25     1     6   ar
    26     2     7   ar
    27     3     4   ar
    28    13    15    2
    29    20    21    1
    30    18    19    1
@<TRIPOS>MOLECULE
Molport-020-279-143 MCULE-5768605864 MCULE-8724888574 PubChem-110255897
 28 30 0 0 0
SMALL
GASTEIGER

@<TRIPOS>ATOM
      1 C          12.8889   41.1289    7.8908 C.ar    1  UNL1        0.1357
      2 C          10.9114   40.6206    9.0950 C.ar    1  UNL1        0.1414
      3 C          13.0063   40.1105   10.0637 C.ar    1  UNL1        0.0635
      4 C          13.6579   40.6171    8.9415 C.ar    1  UNL1        0.0492
      5 C          13.7957   39.5599   11.1958 C.3     1  UNL1        0.0522
      6 N          11.5335   41.1179    7.9936 N.ar    1  UNL1       -0.2159
      7 N          11.6502   40.1200   10.1226 N.ar    1  UNL1       -0.2348
      8 C           9.4205   40.6278    9.1639 C.3     1  UNL1        0.0785
      9 C           8.8161   40.8342    7.7736 C.3     1  UNL1        0.0110
     10 C           7.2909   40.8383    7.8516 C.3     1  UNL1        0.0220
     11 C           6.8212   41.9348    8.8025 C.3     1  UNL1        0.0935
     12 C           8.9328   41.7083   10.1290 C.3     1  UNL1        0.1009
     13 C           6.7112   41.6349   11.3068 C.2     1  UNL1        0.2418
     14 N           7.4742   41.7672   10.0984 N.am    1  UNL1       -0.2780
     15 O           7.2970   41.4863   12.4126 O.2     1  UNL1       -0.2734
     16 C           5.2203   41.7040   11.2852 C.3     1  UNL1        0.1552
     17 C           3.6004   40.2583   10.4426 C.3     1  UNL1        0.0862
     18 N           4.6673   40.3684   11.4200 N.3     1  UNL1       -0.2886
     19 H           4.2971   40.2345   12.3610 H       1  UNL1        0.1237
     20 N          13.4891   41.6671    6.7037 N.pl3   1  UNL1       -0.2833
     21 H          13.2210   41.2511    5.8526 H       1  UNL1        0.1550
     22 C          17.7877   43.6448    7.9865 C.3     1  UNL1        0.0521
     23 C          16.5160   43.7235    7.2220 C.ar    1  UNL1        0.0608
     24 C          14.4347   42.7413    6.6152 C.ar    1  UNL1        0.1328
     25 C          14.1358   43.8420    5.8077 C.ar    1  UNL1        0.0344
     26 C          15.0490   44.8937    5.7140 C.ar    1  UNL1        0.0041
     27 C          16.2487   44.8378    6.4245 C.ar    1  UNL1        0.0148
     28 N          15.6129   42.7095    7.2997 N.ar    1  UNL1       -0.2349
@<TRIPOS>BOND
     1    22    23    1
     2    24    28   ar
     3    24    20    1
     4    25    26   ar
     5    27    23   ar
     6     2     6   ar
     7     3     7   ar
     8     4     1   ar
     9     5     3    1
    10     8     2    1
    11     8     9    1
    12     9    10    1
    13    10    11    1
    14    11    14    1
    15    12    14    1
    16    12     8    1
    17    16    13    1
    18    16    18    1
    19    17    18    1
    20    20     1    1
    21    14    13   am
    22    23    28   ar
    23    24    25   ar
    24    26    27   ar
    25     1     6   ar
    26     2     7   ar
    27     3     4   ar
    28    13    15    2
    29    20    21    1
    30    18    19    1
@<TRIPOS>MOLECULE
Molport-020-279-143 MCULE-5768605864 MCULE-8724888574 PubChem-110255897
 28 30 0 0 0
SMALL
GASTEIGER

@<TRIPOS>ATOM
      1 C          12.4329   41.9034    8.4523 C.ar    1  UNL1        0.1357
      2 C          13.0290   40.0655    9.8256 C.ar    1  UNL1        0.1414
      3 C          11.1133   41.3351   10.3781 C.ar    1  UNL1        0.0635
      4 C          11.3319   42.1596    9.2766 C.ar    1  UNL1        0.0492
      5 C           9.9525   41.5821   11.2723 C.3     1  UNL1        0.0522
      6 N          13.2549   40.8617    8.7474 N.ar    1  UNL1       -0.2159
      7 N          11.9610   40.3063   10.6340 N.ar    1  UNL1       -0.2348
      8 C          13.9588   38.9337   10.1118 C.3     1  UNL1        0.0785
      9 C          13.3608   37.9950   11.1617 C.3     1  UNL1        0.0110
     10 C          14.3165   36.8386   11.4478 C.3     1  UNL1        0.0220
     11 C          15.6607   37.3800   11.9244 C.3     1  UNL1        0.0935
     12 C          15.3187   39.4592   10.5716 C.3     1  UNL1        0.1009
     13 C          17.4671   38.1698   10.3474 C.2     1  UNL1        0.2418
     14 N          16.1738   38.3367   10.9470 N.am    1  UNL1       -0.2780
     15 O          17.8862   39.0058    9.5027 O.2     1  UNL1       -0.2734
     16 C          18.3512   37.0307   10.7331 C.3     1  UNL1        0.1552
     17 C          18.8802   35.9632    8.7319 C.3     1  UNL1        0.0862
     18 N          18.0422   35.8731    9.9131 N.3     1  UNL1       -0.2886
     19 H          17.0576   35.8833    9.6471 H       1  UNL1        0.1237
     20 N          12.7220   42.7091    7.3007 N.pl3   1  UNL1       -0.2833
     21 H          11.9477   43.0009    6.7673 H       1  UNL1        0.1550
     22 C          17.5829   42.9276    7.8991 C.3     1  UNL1        0.0521
     23 C          16.3715   43.2585    7.1048 C.ar    1  UNL1        0.0608
     24 C          14.0096   43.1380    6.8380 C.ar    1  UNL1        0.1328
     25 C          14.0944   43.8605    5.6448 C.ar    1  UNL1        0.0344
     26 C          15.3428   44.2832    5.1846 C.ar    1  UNL1        0.0041
     27 C          16.4918   43.9820    5.9169 C.ar    1  UNL1        0.0148
     28 N          15.1459   42.8560    7.5358 N.ar    1  UNL1       -0.2349
@<TRIPOS>BOND
     1    22    23    1
     2    24    28   ar
     3    24    20    1
     4    25    26   ar
     5    27    23   ar
     6     2     6   ar
     7     3     7   ar
     8     4     1   ar
     9     5     3    1
    10     8     2    1
    11     8     9    1
    12     9    10    1
    13    10    11    1
    14    11    14    1
    15    12    14    1
    16    12     8    1
    17    16    13    1
    18    16    18    1
    19    17    18    1
    20    20     1    1
    21    14    13   am
    22    23    28   ar
    23    24    25   ar
    24    26    27   ar
    25     1     6   ar
    26     2     7   ar
    27     3     4   ar
    28    13    15    2
    29    20    21    1
    30    18    19    1
@<TRIPOS>MOLECULE
Molport-020-279-143 MCULE-5768605864 MCULE-8724888574 PubChem-110255897
 28 30 0 0 0
SMALL
GASTEIGER

@<TRIPOS>ATOM
      1 C          13.2708   41.0225    8.4676 C.ar    1  UNL1        0.1357
      2 C          14.1887   39.3560    9.8815 C.ar    1  UNL1        0.1414
      3 C          12.1943   40.4428   10.5359 C.ar    1  UNL1        0.0635
      4 C          12.2221   41.2111    9.3742 C.ar    1  UNL1        0.0492
      5 C          11.0934   40.6204   11.5180 C.3     1  UNL1        0.0522
      6 N          14.2290   40.0988    8.7440 N.ar    1  UNL1       -0.2159
      7 N          13.1731   39.5319   10.7702 N.ar    1  UNL1       -0.2348
      8 C          15.2633   38.3540   10.1442 C.3     1  UNL1        0.0785
      9 C          16.4821   39.0234   10.7825 C.3     1  UNL1        0.0110
     10 C          17.5762   37.9921   11.0503 C.3     1  UNL1        0.0220
     11 C          17.9710   37.3019    9.7483 C.3     1  UNL1        0.0935
     12 C          15.6570   37.6378    8.8524 C.3     1  UNL1        0.1009
     13 C          16.6971   35.3484    8.7816 C.2     1  UNL1        0.2418
     14 N          16.7800   36.7421    9.1143 N.am    1  UNL1       -0.2780
     15 O          15.6571   34.8875    8.2395 O.2     1  UNL1       -0.2734
     16 C          17.8443   34.4283    9.0369 C.3     1  UNL1        0.1552
     17 C          19.6303   33.8997   10.4351 C.3     1  UNL1        0.0862
     18 N          18.5352   34.8331   10.2480 N.3     1  UNL1       -0.2886
     19 H          17.8998   34.7939   11.0450 H       1  UNL1        0.1237
     20 N          13.3663   41.7767    7.2506 N.pl3   1  UNL1       -0.2833
     21 H          12.6800   41.5931    6.5690 H       1  UNL1        0.1550
     22 C          17.7733   43.7965    7.9805 C.3     1  UNL1        0.0521
     23 C          16.4809   43.7662    7.2480 C.ar    1  UNL1        0.0608
     24 C          14.3467   42.7673    6.9137 C.ar    1  UNL1        0.1328
     25 C          14.0615   43.6850    5.8991 C.ar    1  UNL1        0.0344
     26 C          15.0086   44.6538    5.5627 C.ar    1  UNL1        0.0041
     27 C          16.2282   44.6980    6.2395 C.ar    1  UNL1        0.0148
     28 N          15.5448   42.8304    7.5605 N.ar    1  UNL1       -0.2349
@<TRIPOS>BOND
     1    22    23    1
     2    24    28   ar
     3    24    20    1
     4    25    26   ar
     5    27    23   ar
     6     2     6   ar
     7     3     7   ar
     8     4     1   ar
     9     5     3    1
    10     8     2    1
    11     8     9    1
    12     9    10    1
    13    10    11    1
    14    11    14    1
    15    12    14    1
    16    12     8    1
    17    16    13    1
    18    16    18    1
    19    17    18    1
    20    20     1    1
    21    14    13   am
    22    23    28   ar
    23    24    25   ar
    24    26    27   ar
    25     1     6   ar
    26     2     7   ar
    27     3     4   ar
    28    13    15    2
    29    20    21    1
    30    18    19    1
@<TRIPOS>MOLECULE
Molport-020-279-143 MCULE-5768605864 MCULE-8724888574 PubChem-110255897
 28 30 0 0 0
SMALL
GASTEIGER

@<TRIPOS>ATOM
      1 C          14.8351   41.5855    7.9203 C.ar    1  UNL1        0.1357
      2 C          12.6241   41.4856    7.0714 C.ar    1  UNL1        0.1414
      3 C          14.0818   43.1682    6.2770 C.ar    1  UNL1        0.0635
      4 C          15.0963   42.6913    7.1041 C.ar    1  UNL1        0.0492
      5 C          14.3289   44.3411    5.3989 C.3     1  UNL1        0.0522
      6 N          13.6043   41.0095    7.8838 N.ar    1  UNL1       -0.2159
      7 N          12.8678   42.5610    6.2737 N.ar    1  UNL1       -0.2348
      8 C          11.2872   40.8221    7.0651 C.3     1  UNL1        0.0785
      9 C          11.1398   39.9148    5.8419 C.3     1  UNL1        0.0110
     10 C           9.7708   39.2379    5.8434 C.3     1  UNL1        0.0220
     11 C           8.6686   40.2925    5.8575 C.3     1  UNL1        0.0935
     12 C          10.1701   41.8650    7.0997 C.3     1  UNL1        0.1009
     13 C           7.8546   41.4086    7.9706 C.2     1  UNL1        0.2418
     14 N           8.8763   41.1979    6.9850 N.am    1  UNL1       -0.2780
     15 O           8.0589   42.1908    8.9373 O.2     1  UNL1       -0.2734
     16 C           6.5261   40.7382    7.8551 C.3     1  UNL1        0.1552
     17 C           4.6822   41.1114    9.2282 C.3     1  UNL1        0.0862
     18 N           5.4710   41.6891    8.1560 N.3     1  UNL1       -0.2886
     19 H           4.8881   41.8397    7.3326 H       1  UNL1        0.1237
     20 N          15.8299   41.0387    8.7980 N.pl3   1  UNL1       -0.2833
     21 H          16.7258   41.4437    8.7475 H       1  UNL1        0.1550
     22 C          17.6032   37.0440   11.0189 C.3     1  UNL1        0.0521
     23 C          16.5059   38.0284   10.8329 C.ar    1  UNL1        0.0608
     24 C          15.6685   39.9698    9.7401 C.ar    1  UNL1        0.1328
     25 C          14.4768   39.8796   10.4644 C.ar    1  UNL1        0.0344
     26 C          14.3086   38.8431   11.3843 C.ar    1  UNL1        0.0041
     27 C          15.3280   37.9089   11.5729 C.ar    1  UNL1        0.0148
     28 N          16.6497   39.0456    9.9415 N.ar    1  UNL1       -0.2349
@<TRIPOS>BOND
     1    22    23    1
     2    24    28   ar
     3    24    20    1
     4    25    26   ar
     5    27    23   ar
     6     2     6   ar
     7     3     7   ar
     8     4     1   ar
     9     5     3    1
    10     8     2    1
    11     8     9    1
    12     9    10    1
    13    10    11    1
    14    11    14    1
    15    12    14    1
    16    12     8    1
    17    16    13    1
    18    16    18    1
    19    17    18    1
    20    20     1    1
    21    14    13   am
    22    23    28   ar
    23    24    25   ar
    24    26    27   ar
    25     1     6   ar
    26     2     7   ar
    27     3     4   ar
    28    13    15    2
    29    20    21    1
    30    18    19    1
@<TRIPOS>MOLECULE
Molport-020-279-143 MCULE-5768605864 MCULE-8724888574 PubChem-110255897
 28 30 0 0 0
SMALL
GASTEIGER

@<TRIPOS>ATOM
      1 C          16.6113   40.5512    9.5547 C.ar    1  UNL1        0.1357
      2 C          14.4371   41.0482    8.7517 C.ar    1  UNL1        0.1414
      3 C          16.2704   42.3061    7.9495 C.ar    1  UNL1        0.0635
      4 C          17.1388   41.5655    8.7483 C.ar    1  UNL1        0.0492
      5 C          16.8007   43.3900    7.0823 C.3     1  UNL1        0.0522
      6 N          15.2723   40.3175    9.5365 N.ar    1  UNL1       -0.2159
      7 N          14.9400   42.0373    7.9637 N.ar    1  UNL1       -0.2348
      8 C          12.9733   40.7572    8.7647 C.3     1  UNL1        0.0785
      9 C          12.5263   40.2954   10.1532 C.3     1  UNL1        0.0110
     10 C          11.0276   40.0018   10.1595 C.3     1  UNL1        0.0220
     11 C          10.7012   38.9378    9.1160 C.3     1  UNL1        0.0935
     12 C          12.6253   39.7069    7.7100 C.3     1  UNL1        0.1009
     13 C          10.3462   39.4653    6.6728 C.2     1  UNL1        0.2418
     14 N          11.2104   39.3615    7.8140 N.am    1  UNL1       -0.2780
     15 O          10.8075   39.8379    5.5609 O.2     1  UNL1       -0.2734
     16 C           8.9010   39.1046    6.7685 C.3     1  UNL1        0.1552
     17 C           8.3420   41.3621    6.6433 C.3     1  UNL1        0.0862
     18 N           8.1766   40.1648    7.4462 N.3     1  UNL1       -0.2886
     19 H           8.5605   40.3117    8.3797 H       1  UNL1        0.1237
     20 N          17.4433   39.7473   10.4035 N.pl3   1  UNL1       -0.2833
     21 H          17.7300   40.1598   11.2502 H       1  UNL1        0.1550
     22 C          16.6537   35.2514    8.6152 C.3     1  UNL1        0.0521
     23 C          17.5470   36.2216    9.2996 C.ar    1  UNL1        0.0608
     24 C          17.9048   38.4118   10.1597 C.ar    1  UNL1        0.1328
     25 C          19.1905   38.0533   10.5739 C.ar    1  UNL1        0.0344
     26 C          19.6504   36.7558   10.3418 C.ar    1  UNL1        0.0041
     27 C          18.8259   35.8305    9.7004 C.ar    1  UNL1        0.0148
     28 N          17.1180   37.4906    9.5353 N.ar    1  UNL1       -0.2349
@<TRIPOS>BOND
     1    22    23    1
     2    24    28   ar
     3    24    20    1
     4    25    26   ar
     5    27    23   ar
     6     2     6   ar
     7     3     7   ar
     8     4     1   ar
     9     5     3    1
    10     8     2    1
    11     8     9    1
    12     9    10    1
    13    10    11    1
    14    11    14    1
    15    12    14    1
    16    12     8    1
    17    16    13    1
    18    16    18    1
    19    17    18    1
    20    20     1    1
    21    14    13   am
    22    23    28   ar
    23    24    25   ar
    24    26    27   ar
    25     1     6   ar
    26     2     7   ar
    27     3     4   ar
    28    13    15    2
    29    20    21    1
    30    18    19    1
@<TRIPOS>MOLECULE
Molport-020-279-143 MCULE-5768605864 MCULE-8724888574 PubChem-110255897
 28 30 0 0 0
SMALL
GASTEIGER

@<TRIPOS>ATOM
      1 C          11.9372   41.8302    6.2053 C.ar    1  UNL1        0.1357
      2 C           9.7870   41.5465    7.1618 C.ar    1  UNL1        0.1414
      3 C          10.4724   40.0905    5.4305 C.ar    1  UNL1        0.0635
      4 C          11.6957   40.7517    5.3475 C.ar    1  UNL1        0.0492
      5 C          10.1865   38.9414    4.5327 C.3     1  UNL1        0.0522
      6 N          10.9760   42.2013    7.0919 N.ar    1  UNL1       -0.2159
      7 N           9.5419   40.4962    6.3317 N.ar    1  UNL1       -0.2348
      8 C           8.7601   41.9896    8.1502 C.3     1  UNL1        0.0785
      9 C           8.9027   41.2149    9.4618 C.3     1  UNL1        0.0110
     10 C           7.8506   41.6750   10.4687 C.3     1  UNL1        0.0220
     11 C           6.4536   41.4811    9.8872 C.3     1  UNL1        0.0935
     12 C           7.3537   41.8211    7.5753 C.3     1  UNL1        0.1009
     13 C           5.3596   43.1500    8.3407 C.2     1  UNL1        0.2418
     14 N           6.3660   42.1591    8.5962 N.am    1  UNL1       -0.2780
     15 O           5.3070   43.7251    7.2207 O.2     1  UNL1       -0.2734
     16 C           4.3403   43.4940    9.3754 C.3     1  UNL1        0.1552
     17 C           2.8835   41.6781    9.4443 C.3     1  UNL1        0.0862
     18 N           3.0325   43.0325    8.9454 N.3     1  UNL1       -0.2886
     19 H           2.9743   43.0405    7.9271 H       1  UNL1        0.1237
     20 N          13.1728   42.5594    6.1777 N.pl3   1  UNL1       -0.2833
     21 H          13.2311   43.2937    5.5246 H       1  UNL1        0.1550
     22 C          17.7632   43.7490    7.4215 C.3     1  UNL1        0.0521
     23 C          16.5605   42.8983    7.6156 C.ar    1  UNL1        0.0608
     24 C          14.3322   42.3409    6.9926 C.ar    1  UNL1        0.1328
     25 C          14.3026   41.3278    7.9548 C.ar    1  UNL1        0.0344
     26 C          15.4257   41.1060    8.7539 C.ar    1  UNL1        0.0041
     27 C          16.5646   41.8948    8.5862 C.ar    1  UNL1        0.0148
     28 N          15.4561   43.0980    6.8474 N.ar    1  UNL1       -0.2349
@<TRIPOS>BOND
     1    22    23    1
     2    24    28   ar
     3    24    20    1
     4    25    26   ar
     5    27    23   ar
     6     2     6   ar
     7     3     7   ar
     8     4     1   ar
     9     5     3    1
    10     8     2    1
    11     8     9    1
    12     9    10    1
    13    10    11    1
    14    11    14    1
    15    12    14    1
    16    12     8    1
    17    16    13    1
    18    16    18    1
    19    17    18    1
    20    20     1    1
    21    14    13   am
    22    23    28   ar
    23    24    25   ar
    24    26    27   ar
    25     1     6   ar
    26     2     7   ar
    27     3     4   ar
    28    13    15    2
    29    20    21    1
    30    18    19    1
@<TRIPOS>MOLECULE
Molport-020-279-143 MCULE-5768605864 MCULE-8724888574 PubChem-110255897
 28 30 0 0 0
SMALL
GASTEIGER

@<TRIPOS>ATOM
      1 C           8.3576   42.1161   10.8660 C.ar    1  UNL1        0.1357
      2 C          10.5715   41.2800   11.0026 C.ar    1  UNL1        0.1414
      3 C           9.2451   41.3366   12.9582 C.ar    1  UNL1        0.0635
      4 C           8.1862   41.8799   12.2343 C.ar    1  UNL1        0.0492
      5 C           9.0935   41.0745   14.4130 C.3     1  UNL1        0.0522
      6 N           9.5471   41.8100   10.2835 N.ar    1  UNL1       -0.2159
      7 N          10.4152   41.0466   12.3342 N.ar    1  UNL1       -0.2348
      8 C          11.8605   40.9606   10.3213 C.3     1  UNL1        0.0785
      9 C          11.6999   41.0292    8.8013 C.3     1  UNL1        0.0110
     10 C          13.0228   40.7035    8.1112 C.3     1  UNL1        0.0220
     11 C          13.5022   39.3178    8.5321 C.3     1  UNL1        0.0935
     12 C          12.3662   39.5825   10.7478 C.3     1  UNL1        0.1009
     13 C          14.7832   38.8904   10.6651 C.2     1  UNL1        0.2418
     14 N          13.5685   39.2481    9.9897 N.am    1  UNL1       -0.2780
     15 O          14.8174   38.8420   11.9239 O.2     1  UNL1       -0.2734
     16 C          16.0137   38.5377    9.8973 C.3     1  UNL1        0.1552
     17 C          18.1696   39.2104   10.4661 C.3     1  UNL1        0.0862
     18 N          16.9225   39.6698    9.8836 N.3     1  UNL1       -0.2886
     19 H          16.5378   40.4361   10.4361 H       1  UNL1        0.1237
     20 N           7.3127   42.6734   10.0558 N.pl3   1  UNL1       -0.2833
     21 H           6.6627   43.2500   10.5186 H       1  UNL1        0.1550
     22 C           6.5794   39.6828    6.2409 C.3     1  UNL1        0.0521
     23 C           6.7502   41.0568    6.7801 C.ar    1  UNL1        0.0608
     24 C           7.1069   42.4866    8.6491 C.ar    1  UNL1        0.1328
     25 C           7.0717   43.6074    7.8150 C.ar    1  UNL1        0.0344
     26 C           6.8720   43.4375    6.4438 C.ar    1  UNL1        0.0041
     27 C           6.7096   42.1548    5.9188 C.ar    1  UNL1        0.0148
     28 N           6.9459   41.2439    8.1130 N.ar    1  UNL1       -0.2349
@<TRIPOS>BOND
     1    22    23    1
     2    24    28   ar
     3    24    20    1
     4    25    26   ar
     5    27    23   ar
     6     2     6   ar
     7     3     7   ar
     8     4     1   ar
     9     5     3    1
    10     8     2    1
    11     8     9    1
    12     9    10    1
    13    10    11    1
    14    11    14    1
    15    12    14    1
    16    12     8    1
    17    16    13    1
    18    16    18    1
    19    17    18    1
    20    20     1    1
    21    14    13   am
    22    23    28   ar
    23    24    25   ar
    24    26    27   ar
    25     1     6   ar
    26     2     7   ar
    27     3     4   ar
    28    13    15    2
    29    20    21    1
    30    18    19    1
