@<TRIPOS>MOLECULE
MolPort-046-949-846 MCULE-4469830685 PubChem-46951958
 30 33 0 0 0
SMALL
GASTEIGER

@<TRIPOS>ATOM
      1 C          12.3651   41.2331    7.4023 C.2     1  UNL1        0.2701
      2 O          11.1702   41.2253    7.8020 O.2     1  UNL1       -0.2681
      3 N          13.2499   40.1480    7.7084 N.am    1  UNL1       -0.2593
      4 H          14.1700   40.2165    7.3649 H       1  UNL1        0.1571
      5 C          12.8657   42.3654    6.6103 C.ar    1  UNL1        0.1512
      6 C          14.0827   43.9453    5.7447 C.ar    1  UNL1        0.0492
      7 C          14.0882   42.9924    6.7279 C.ar    1  UNL1        0.0145
      8 C          15.2687   42.6814    7.5933 C.3     1  UNL1        0.0293
      9 C          16.2570   43.8690    7.5893 C.3     1  UNL1        0.0048
     10 C          16.4935   44.3898    6.1527 C.3     1  UNL1        0.0066
     11 C          15.1954   44.9199    5.5260 C.3     1  UNL1        0.0449
     12 N          12.1651   42.9595    5.6195 N.ar    1  UNL1       -0.1687
     13 N          12.9045   43.9303    5.0960 N.ar    1  UNL1       -0.2800
     14 H          12.6380   44.5318    4.3636 H       1  UNL1        0.1886
     15 C          17.5718   43.5416    8.3250 C.3     1  UNL1        0.0003
     16 C          17.5771   44.1876    9.6997 C.3     1  UNL1        0.0000
     17 C          18.7553   44.0980    7.5529 C.3     1  UNL1        0.0000
     18 C          17.7562   42.0407    8.4887 C.3     1  UNL1        0.0000
     19 C          13.8163   35.6490    9.4406 C.ar    1  UNL1        0.1566
     20 C          13.2191   36.8983    9.2459 C.ar    1  UNL1        0.1230
     21 C          12.0230   37.2109    9.8753 C.ar    1  UNL1        0.0527
     22 C          11.3693   36.3164   10.7175 C.ar    1  UNL1        0.0083
     23 C          11.9578   35.0599   10.9238 C.ar    1  UNL1        0.0037
     24 C          13.1710   34.7275   10.2922 C.ar    1  UNL1        0.0385
     25 C          12.9302   38.9734    8.4641 C.ar    1  UNL1        0.1659
     26 S          11.5619   38.7657    9.4484 S.2     1  UNL1       -0.0513
     27 N          13.7290   37.8794    8.4571 N.ar    1  UNL1       -0.2208
     28 O          15.0259   35.3464    8.8024 O.3     1  UNL1       -0.4739
     29 C          16.2581   36.7675   10.3166 C.3     1  UNL1        0.0512
     30 C          16.2006   36.1394    8.9362 C.3     1  UNL1        0.2056
@<TRIPOS>BOND
     1    29    30    1
     2    30    28    1
     3    19    28    1
     4    20    21   ar
     5    20    27   ar
     6    21    26   ar
     7    22    23   ar
     8    24    19   ar
     9    25    26   ar
    10    25     3    1
    11     1     5    1
    12     7     5   ar
    13     8     7    1
    14     8     9    1
    15     9    10    1
    16     9    15    1
    17    10    11    1
    18    11     6    1
    19    15    16    1
    20    15    17    1
    21    15    18    1
    22     3     1   am
    23    13    12   ar
    24    13     6   ar
    25    19    20   ar
    26    21    22   ar
    27    23    24   ar
    28    25    27   ar
    29     1     2    2
    30     5    12   ar
    31     6     7   ar
    32     3     4    1
    33    13    14    1
@<TRIPOS>MOLECULE
MolPort-046-949-846 MCULE-4469830685 PubChem-46951958
 30 33 0 0 0
SMALL
GASTEIGER

@<TRIPOS>ATOM
      1 C          11.6521   40.6918    6.4480 C.2     1  UNL1        0.2701
      2 O          12.3204   39.9002    7.1651 O.2     1  UNL1       -0.2681
      3 N          12.1973   41.9529    6.0399 N.am    1  UNL1       -0.2593
      4 H          11.6228   42.5231    5.4796 H       1  UNL1        0.1571
      5 C          10.2953   40.3242    6.0190 C.ar    1  UNL1        0.1512
      6 C           8.1420   40.0710    5.8578 C.ar    1  UNL1        0.0492
      7 C           9.1131   40.5659    6.6866 C.ar    1  UNL1        0.0145
      8 C           8.8389   41.3174    7.9512 C.3     1  UNL1        0.0293
      9 C           7.4053   41.0201    8.4448 C.3     1  UNL1        0.0048
     10 C           6.3889   41.1064    7.2828 C.3     1  UNL1        0.0066
     11 C           6.6858   40.0612    6.1973 C.3     1  UNL1        0.0449
     12 N          10.0193   39.6799    4.8640 N.ar    1  UNL1       -0.1687
     13 N           8.7048   39.5172    4.7689 N.ar    1  UNL1       -0.2800
     14 H           8.2273   39.0709    4.0327 H       1  UNL1        0.1886
     15 C           7.0050   41.8961    9.6487 C.3     1  UNL1        0.0003
     16 C           6.6805   43.3057    9.1853 C.3     1  UNL1        0.0000
     17 C           8.1582   41.9915   10.6323 C.3     1  UNL1        0.0000
     18 C           5.7928   41.3266   10.3696 C.3     1  UNL1        0.0000
     19 C          16.5412   42.0968    8.2012 C.ar    1  UNL1        0.1566
     20 C          15.4889   42.5054    7.3759 C.ar    1  UNL1        0.1230
     21 C          15.5897   43.6744    6.6359 C.ar    1  UNL1        0.0527
     22 C          16.7208   44.4841    6.6740 C.ar    1  UNL1        0.0083
     23 C          17.7853   44.0858    7.4961 C.ar    1  UNL1        0.0037
     24 C          17.6984   42.9024    8.2533 C.ar    1  UNL1        0.0385
     25 C          13.4944   42.4671    6.3654 C.ar    1  UNL1        0.1659
     26 S          14.1806   43.8951    5.7538 S.2     1  UNL1       -0.0513
     27 N          14.3208   41.8283    7.2280 N.ar    1  UNL1       -0.2208
     28 O          16.4291   40.9127    8.9408 O.3     1  UNL1       -0.4739
     29 C          15.4011   39.4019   10.5192 C.3     1  UNL1        0.0512
     30 C          15.1840   40.3786    9.3780 C.3     1  UNL1        0.2056
@<TRIPOS>BOND
     1    29    30    1
     2    30    28    1
     3    19    28    1
     4    20    21   ar
     5    20    27   ar
     6    21    26   ar
     7    22    23   ar
     8    24    19   ar
     9    25    26   ar
    10    25     3    1
    11     1     5    1
    12     7     5   ar
    13     8     7    1
    14     8     9    1
    15     9    10    1
    16     9    15    1
    17    10    11    1
    18    11     6    1
    19    15    16    1
    20    15    17    1
    21    15    18    1
    22     3     1   am
    23    13    12   ar
    24    13     6   ar
    25    19    20   ar
    26    21    22   ar
    27    23    24   ar
    28    25    27   ar
    29     1     2    2
    30     5    12   ar
    31     6     7   ar
    32     3     4    1
    33    13    14    1
@<TRIPOS>MOLECULE
MolPort-046-949-846 MCULE-4469830685 PubChem-46951958
 30 33 0 0 0
SMALL
GASTEIGER

@<TRIPOS>ATOM
      1 C          11.2603   42.1346    8.3518 C.2     1  UNL1        0.2701
      2 O          11.5385   42.8853    9.3247 O.2     1  UNL1       -0.2681
      3 N          12.2287   41.8657    7.3301 N.am    1  UNL1       -0.2593
      4 H          11.9468   41.2700    6.5987 H       1  UNL1        0.1571
      5 C           9.9279   41.5218    8.2567 C.ar    1  UNL1        0.1512
      6 C           8.1936   40.3528    7.6633 C.ar    1  UNL1        0.0492
      7 C           9.4672   40.6710    7.2741 C.ar    1  UNL1        0.0145
      8 C          10.1665   40.0615    6.1000 C.3     1  UNL1        0.0293
      9 C           9.1345   39.4501    5.1263 C.3     1  UNL1        0.0048
     10 C           8.0778   38.6172    5.8883 C.3     1  UNL1        0.0066
     11 C           7.2722   39.4879    6.8639 C.3     1  UNL1        0.0449
     12 N           8.9429   41.7169    9.1607 N.ar    1  UNL1       -0.1687
     13 N           7.8803   41.0098    8.7943 N.ar    1  UNL1       -0.2800
     14 H           7.0171   40.9731    9.2663 H       1  UNL1        0.1886
     15 C           9.8016   38.6587    3.9837 C.3     1  UNL1        0.0003
     16 C          11.2717   39.0265    3.8811 C.3     1  UNL1        0.0000
     17 C           9.1491   39.0056    2.6570 C.3     1  UNL1        0.0000
     18 C           9.6869   37.1587    4.2081 C.3     1  UNL1        0.0000
     19 C          16.9756   42.1160    8.3127 C.ar    1  UNL1        0.1566
     20 C          15.7499   42.4656    7.7376 C.ar    1  UNL1        0.1230
     21 C          15.6615   43.5501    6.8771 C.ar    1  UNL1        0.0527
     22 C          16.7659   44.3298    6.5467 C.ar    1  UNL1        0.0083
     23 C          18.0026   43.9898    7.1146 C.ar    1  UNL1        0.0037
     24 C          18.1086   42.8924    7.9898 C.ar    1  UNL1        0.0385
     25 C          13.5658   42.3765    7.2661 C.ar    1  UNL1        0.1659
     26 S          14.0763   43.7164    6.3560 S.2     1  UNL1       -0.0513
     27 N          14.5823   41.8076    7.9576 N.ar    1  UNL1       -0.2208
     28 O          17.0529   41.0168    9.1773 O.3     1  UNL1       -0.4739
     29 C          16.3424   39.1181   10.4892 C.3     1  UNL1        0.0512
     30 C          15.9202   40.2481    9.5682 C.3     1  UNL1        0.2056
@<TRIPOS>BOND
     1    29    30    1
     2    30    28    1
     3    19    28    1
     4    20    21   ar
     5    20    27   ar
     6    21    26   ar
     7    22    23   ar
     8    24    19   ar
     9    25    26   ar
    10    25     3    1
    11     1     5    1
    12     7     5   ar
    13     8     7    1
    14     8     9    1
    15     9    10    1
    16     9    15    1
    17    10    11    1
    18    11     6    1
    19    15    16    1
    20    15    17    1
    21    15    18    1
    22     3     1   am
    23    13    12   ar
    24    13     6   ar
    25    19    20   ar
    26    21    22   ar
    27    23    24   ar
    28    25    27   ar
    29     1     2    2
    30     5    12   ar
    31     6     7   ar
    32     3     4    1
    33    13    14    1
@<TRIPOS>MOLECULE
MolPort-046-949-846 MCULE-4469830685 PubChem-46951958
 30 33 0 0 0
SMALL
GASTEIGER

@<TRIPOS>ATOM
      1 C          13.4208   42.5530    7.3557 C.2     1  UNL1        0.2701
      2 O          12.6068   43.2032    8.0643 O.2     1  UNL1       -0.2681
      3 N          12.9804   41.4479    6.5563 N.am    1  UNL1       -0.2593
      4 H          13.6676   40.9838    6.0255 H       1  UNL1        0.1571
      5 C          14.8420   42.9270    7.3420 C.ar    1  UNL1        0.1512
      6 C          16.9983   42.9880    7.6126 C.ar    1  UNL1        0.0492
      7 C          15.8847   42.2729    7.9637 C.ar    1  UNL1        0.0145
      8 C          15.9150   40.9921    8.7369 C.3     1  UNL1        0.0293
      9 C          17.2523   40.8644    9.4999 C.3     1  UNL1        0.0048
     10 C          18.4486   41.2208    8.5873 C.3     1  UNL1        0.0066
     11 C          18.3749   42.6778    8.1071 C.3     1  UNL1        0.0449
     12 N          15.3315   44.0022    6.6863 N.ar    1  UNL1       -0.1687
     13 N          16.6475   44.0449    6.8583 N.ar    1  UNL1       -0.2800
     14 H          17.2577   44.7283    6.4979 H       1  UNL1        0.1886
     15 C          17.4130   39.4890   10.1776 C.3     1  UNL1        0.0003
     16 C          18.7615   38.8858    9.8243 C.3     1  UNL1        0.0000
     17 C          16.3405   38.5341    9.6833 C.3     1  UNL1        0.0000
     18 C          17.3085   39.6013   11.6909 C.3     1  UNL1        0.0000
     19 C           9.1650   38.6211    7.5631 C.ar    1  UNL1        0.1566
     20 C           9.9006   39.6329    6.9382 C.ar    1  UNL1        0.1230
     21 C           9.3166   40.4242    5.9599 C.ar    1  UNL1        0.0527
     22 C           7.9947   40.2569    5.5586 C.ar    1  UNL1        0.0083
     23 C           7.2438   39.2469    6.1780 C.ar    1  UNL1        0.0037
     24 C           7.8220   38.4355    7.1723 C.ar    1  UNL1        0.0385
     25 C          11.6408   40.9506    6.4520 C.ar    1  UNL1        0.1659
     26 S          10.4406   41.5375    5.4035 S.2     1  UNL1       -0.0513
     27 N          11.1981   39.9233    7.2161 N.ar    1  UNL1       -0.2208
     28 O           9.7647   37.8310    8.5520 O.3     1  UNL1       -0.4739
     29 C          11.4910   36.8803    9.9473 C.3     1  UNL1        0.0512
     30 C          11.1681   37.8078    8.7902 C.3     1  UNL1        0.2056
@<TRIPOS>BOND
     1    29    30    1
     2    30    28    1
     3    19    28    1
     4    20    21   ar
     5    20    27   ar
     6    21    26   ar
     7    22    23   ar
     8    24    19   ar
     9    25    26   ar
    10    25     3    1
    11     1     5    1
    12     7     5   ar
    13     8     7    1
    14     8     9    1
    15     9    10    1
    16     9    15    1
    17    10    11    1
    18    11     6    1
    19    15    16    1
    20    15    17    1
    21    15    18    1
    22     3     1   am
    23    13    12   ar
    24    13     6   ar
    25    19    20   ar
    26    21    22   ar
    27    23    24   ar
    28    25    27   ar
    29     1     2    2
    30     5    12   ar
    31     6     7   ar
    32     3     4    1
    33    13    14    1
@<TRIPOS>MOLECULE
MolPort-046-949-846 MCULE-4469830685 PubChem-46951958
 30 33 0 0 0
SMALL
GASTEIGER

@<TRIPOS>ATOM
      1 C          11.6218   40.7853   10.6282 C.2     1  UNL1        0.2701
      2 O          12.1622   41.4385    9.6961 O.2     1  UNL1       -0.2681
      3 N          12.3598   39.7960   11.3568 N.am    1  UNL1       -0.2593
      4 H          11.8781   39.3229   12.0732 H       1  UNL1        0.1571
      5 C          10.2171   41.0358   10.9800 C.ar    1  UNL1        0.1512
      6 C           8.0742   41.3994   10.9300 C.ar    1  UNL1        0.0492
      7 C           9.1683   41.2723   10.1166 C.ar    1  UNL1        0.0145
      8 C           9.1099   41.2627    8.6213 C.3     1  UNL1        0.0293
      9 C           7.7923   41.9084    8.1375 C.3     1  UNL1        0.0048
     10 C           6.5842   41.3738    8.9411 C.3     1  UNL1        0.0066
     11 C           6.7018   41.7229   10.4321 C.3     1  UNL1        0.0449
     12 N           9.7516   41.0625   12.2482 N.ar    1  UNL1       -0.1687
     13 N           8.4441   41.2930   12.2187 N.ar    1  UNL1       -0.2800
     14 H           7.8513   41.3720   13.0007 H       1  UNL1        0.1886
     15 C           7.5970   41.7742    6.6141 C.3     1  UNL1        0.0003
     16 C           6.8634   42.9885    6.0715 C.3     1  UNL1        0.0000
     17 C           6.7526   40.5513    6.3011 C.3     1  UNL1        0.0000
     18 C           8.9304   41.6456    5.8938 C.3     1  UNL1        0.0000
     19 C          16.8735   40.1499    9.6065 C.ar    1  UNL1        0.1566
     20 C          15.7994   39.6170   10.3259 C.ar    1  UNL1        0.1230
     21 C          15.9550   38.4496   11.0590 C.ar    1  UNL1        0.0527
     22 C          17.1641   37.7629   11.1170 C.ar    1  UNL1        0.0083
     23 C          18.2511   38.2869   10.4017 C.ar    1  UNL1        0.0037
     24 C          18.1091   39.4703    9.6530 C.ar    1  UNL1        0.0385
     25 C          13.7282   39.4264   11.1473 C.ar    1  UNL1        0.1659
     26 S          14.5027   38.0651   11.8040 S.2     1  UNL1       -0.0513
     27 N          14.5577   40.1656   10.3724 N.ar    1  UNL1       -0.2208
     28 O          16.7049   41.3311    8.8730 O.3     1  UNL1       -0.4739
     29 C          17.5123   43.5853    8.5607 C.3     1  UNL1        0.0512
     30 C          17.7914   42.1050    8.3759 C.3     1  UNL1        0.2056
@<TRIPOS>BOND
     1    29    30    1
     2    30    28    1
     3    19    28    1
     4    20    21   ar
     5    20    27   ar
     6    21    26   ar
     7    22    23   ar
     8    24    19   ar
     9    25    26   ar
    10    25     3    1
    11     1     5    1
    12     7     5   ar
    13     8     7    1
    14     8     9    1
    15     9    10    1
    16     9    15    1
    17    10    11    1
    18    11     6    1
    19    15    16    1
    20    15    17    1
    21    15    18    1
    22     3     1   am
    23    13    12   ar
    24    13     6   ar
    25    19    20   ar
    26    21    22   ar
    27    23    24   ar
    28    25    27   ar
    29     1     2    2
    30     5    12   ar
    31     6     7   ar
    32     3     4    1
    33    13    14    1
@<TRIPOS>MOLECULE
MolPort-046-949-846 MCULE-4469830685 PubChem-46951958
 30 33 0 0 0
SMALL
GASTEIGER

@<TRIPOS>ATOM
      1 C           9.0210   42.9918    8.7827 C.2     1  UNL1        0.2701
      2 O           9.3113   43.0958   10.0044 O.2     1  UNL1       -0.2681
      3 N           9.9527   42.4279    7.8510 N.am    1  UNL1       -0.2593
      4 H           9.6624   42.3749    6.9118 H       1  UNL1        0.1571
      5 C           7.7115   43.4512    8.2988 C.ar    1  UNL1        0.1512
      6 C           5.5854   43.8093    8.0197 C.ar    1  UNL1        0.0492
      7 C           6.4692   43.0739    8.7633 C.ar    1  UNL1        0.0145
      8 C           6.0780   42.1905    9.9060 C.3     1  UNL1        0.0293
      9 C           4.5800   41.8260    9.8063 C.3     1  UNL1        0.0048
     10 C           3.7241   43.0753    9.4938 C.3     1  UNL1        0.0066
     11 C           4.0996   43.6891    8.1370 C.3     1  UNL1        0.0449
     12 N           7.5495   44.3443    7.2980 N.ar    1  UNL1       -0.1687
     13 N           6.2507   44.5570    7.1212 N.ar    1  UNL1       -0.2800
     14 H           5.8468   45.1554    6.4518 H       1  UNL1        0.1886
     15 C           4.0782   41.0587   11.0458 C.3     1  UNL1        0.0003
     16 C           3.3152   39.8166   10.6191 C.3     1  UNL1        0.0000
     17 C           3.1260   41.9278   11.8486 C.3     1  UNL1        0.0000
     18 C           5.2328   40.6398   11.9430 C.3     1  UNL1        0.0000
     19 C          13.3009   39.5841    9.9160 C.ar    1  UNL1        0.1566
     20 C          12.7830   40.6068    9.1153 C.ar    1  UNL1        0.1230
     21 C          13.6313   41.4182    8.3760 C.ar    1  UNL1        0.0527
     22 C          15.0137   41.2589    8.3911 C.ar    1  UNL1        0.0083
     23 C          15.5476   40.2358    9.1885 C.ar    1  UNL1        0.0037
     24 C          14.7001   39.4042    9.9446 C.ar    1  UNL1        0.0385
     25 C          11.2640   41.9335    8.1491 C.ar    1  UNL1        0.1659
     26 S          12.7220   42.5419    7.5259 S.2     1  UNL1       -0.0513
     27 N          11.4606   40.8910    8.9916 N.ar    1  UNL1       -0.2208
     28 O          12.4340   38.7692   10.6551 O.3     1  UNL1       -0.4739
     29 C          10.8896   37.3017    9.5184 C.3     1  UNL1        0.0512
     30 C          12.1692   37.4094   10.3273 C.3     1  UNL1        0.2056
@<TRIPOS>BOND
     1    29    30    1
     2    30    28    1
     3    19    28    1
     4    20    21   ar
     5    20    27   ar
     6    21    26   ar
     7    22    23   ar
     8    24    19   ar
     9    25    26   ar
    10    25     3    1
    11     1     5    1
    12     7     5   ar
    13     8     7    1
    14     8     9    1
    15     9    10    1
    16     9    15    1
    17    10    11    1
    18    11     6    1
    19    15    16    1
    20    15    17    1
    21    15    18    1
    22     3     1   am
    23    13    12   ar
    24    13     6   ar
    25    19    20   ar
    26    21    22   ar
    27    23    24   ar
    28    25    27   ar
    29     1     2    2
    30     5    12   ar
    31     6     7   ar
    32     3     4    1
    33    13    14    1
@<TRIPOS>MOLECULE
MolPort-046-949-846 MCULE-4469830685 PubChem-46951958
 30 33 0 0 0
SMALL
GASTEIGER

@<TRIPOS>ATOM
      1 C           9.0114   41.8292    7.9348 C.2     1  UNL1        0.2701
      2 O           9.1500   40.7209    7.3517 O.2     1  UNL1       -0.2681
      3 N           9.9664   42.2732    8.9068 N.am    1  UNL1       -0.2593
      4 H           9.7990   43.1491    9.3240 H       1  UNL1        0.1571
      5 C           7.8587   42.6844    7.6189 C.ar    1  UNL1        0.1512
      6 C           5.9237   43.6754    7.6008 C.ar    1  UNL1        0.0492
      7 C           6.6174   42.6699    8.2194 C.ar    1  UNL1        0.0145
      8 C           6.1014   41.8818    9.3821 C.3     1  UNL1        0.0293
      9 C           4.5617   41.9870    9.4530 C.3     1  UNL1        0.0048
     10 C           4.0960   43.4501    9.2697 C.3     1  UNL1        0.0066
     11 C           4.4926   43.9978    7.8907 C.3     1  UNL1        0.0449
     12 N           7.8688   43.6389    6.6627 N.ar    1  UNL1       -0.1687
     13 N           6.6843   44.2390    6.6453 N.ar    1  UNL1       -0.2800
     14 H           6.4115   44.9666    6.0409 H       1  UNL1        0.1886
     15 C           3.9864   41.3372   10.7273 C.3     1  UNL1        0.0003
     16 C           3.2431   40.0606   10.3740 C.3     1  UNL1        0.0000
     17 C           2.9942   42.2763   11.3907 C.3     1  UNL1        0.0000
     18 C           5.0860   41.0036   11.7238 C.3     1  UNL1        0.0000
     19 C          14.5942   40.8125    8.7977 C.ar    1  UNL1        0.1566
     20 C          13.2772   40.9159    9.2561 C.ar    1  UNL1        0.1230
     21 C          12.8702   40.2225   10.3865 C.ar    1  UNL1        0.0527
     22 C          13.7342   39.4057   11.1096 C.ar    1  UNL1        0.0083
     23 C          15.0591   39.2937   10.6627 C.ar    1  UNL1        0.0037
     24 C          15.4874   39.9909    9.5173 C.ar    1  UNL1        0.0385
     25 C          11.1402   41.5705    9.3326 C.ar    1  UNL1        0.1659
     26 S          11.2512   40.5448   10.6816 S.2     1  UNL1       -0.0513
     27 N          12.3145   41.6698    8.6645 N.ar    1  UNL1       -0.2208
     28 O          14.9940   41.5204    7.6572 O.3     1  UNL1       -0.4739
     29 C          16.9357   42.3080    8.8574 C.3     1  UNL1        0.0512
     30 C          16.0120   42.5155    7.6712 C.3     1  UNL1        0.2056
@<TRIPOS>BOND
     1    29    30    1
     2    30    28    1
     3    19    28    1
     4    20    21   ar
     5    20    27   ar
     6    21    26   ar
     7    22    23   ar
     8    24    19   ar
     9    25    26   ar
    10    25     3    1
    11     1     5    1
    12     7     5   ar
    13     8     7    1
    14     8     9    1
    15     9    10    1
    16     9    15    1
    17    10    11    1
    18    11     6    1
    19    15    16    1
    20    15    17    1
    21    15    18    1
    22     3     1   am
    23    13    12   ar
    24    13     6   ar
    25    19    20   ar
    26    21    22   ar
    27    23    24   ar
    28    25    27   ar
    29     1     2    2
    30     5    12   ar
    31     6     7   ar
    32     3     4    1
    33    13    14    1
@<TRIPOS>MOLECULE
MolPort-046-949-846 MCULE-4469830685 PubChem-46951958
 30 33 0 0 0
SMALL
GASTEIGER

@<TRIPOS>ATOM
      1 C          11.4034   39.9218    7.2707 C.2     1  UNL1        0.2701
      2 O          11.9223   39.0436    8.0104 O.2     1  UNL1       -0.2681
      3 N          12.1125   41.1252    6.9496 N.am    1  UNL1       -0.2593
      4 H          11.6501   41.7692    6.3660 H       1  UNL1        0.1571
      5 C          10.0543   39.7167    6.7251 C.ar    1  UNL1        0.1512
      6 C           7.9146   39.7702    6.3440 C.ar    1  UNL1        0.0492
      7 C           8.8657   40.1996    7.2305 C.ar    1  UNL1        0.0145
      8 C           8.5912   41.1118    8.3845 C.3     1  UNL1        0.0293
      9 C           7.0872   41.0838    8.7370 C.3     1  UNL1        0.0048
     10 C           6.2164   41.1977    7.4643 C.3     1  UNL1        0.0066
     11 C           6.4490   40.0122    6.5160 C.3     1  UNL1        0.0449
     12 N           9.7944   39.0029    5.6077 N.ar    1  UNL1       -0.1687
     13 N           8.4866   39.0280    5.3791 N.ar    1  UNL1       -0.2800
     14 H           8.0190   38.5828    4.6359 H       1  UNL1        0.1886
     15 C           6.7146   42.1308    9.8056 C.3     1  UNL1        0.0003
     16 C           7.8107   43.1762    9.9187 C.3     1  UNL1        0.0000
     17 C           6.5749   41.4650   11.1634 C.3     1  UNL1        0.0000
     18 C           5.4064   42.8281    9.4656 C.3     1  UNL1        0.0000
     19 C          16.1118   43.8471    7.3474 C.ar    1  UNL1        0.1566
     20 C          15.2555   42.7617    7.5567 C.ar    1  UNL1        0.1230
     21 C          15.6453   41.7054    8.3671 C.ar    1  UNL1        0.0527
     22 C          16.8831   41.6723    9.0024 C.ar    1  UNL1        0.0083
     23 C          17.7520   42.7553    8.8031 C.ar    1  UNL1        0.0037
     24 C          17.3711   43.8346    7.9836 C.ar    1  UNL1        0.0385
     25 C          13.4266   41.4853    7.3926 C.ar    1  UNL1        0.1659
     26 S          14.4164   40.5657    8.4216 S.2     1  UNL1       -0.0513
     27 N          14.0176   42.6429    7.0106 N.ar    1  UNL1       -0.2208
     28 O          15.7054   44.9094    6.5300 O.3     1  UNL1       -0.4739
     29 C          15.0983   43.8768    4.4333 C.3     1  UNL1        0.0512
     30 C          14.6690   44.7980    5.5604 C.3     1  UNL1        0.2056
@<TRIPOS>BOND
     1    29    30    1
     2    30    28    1
     3    19    28    1
     4    20    21   ar
     5    20    27   ar
     6    21    26   ar
     7    22    23   ar
     8    24    19   ar
     9    25    26   ar
    10    25     3    1
    11     1     5    1
    12     7     5   ar
    13     8     7    1
    14     8     9    1
    15     9    10    1
    16     9    15    1
    17    10    11    1
    18    11     6    1
    19    15    16    1
    20    15    17    1
    21    15    18    1
    22     3     1   am
    23    13    12   ar
    24    13     6   ar
    25    19    20   ar
    26    21    22   ar
    27    23    24   ar
    28    25    27   ar
    29     1     2    2
    30     5    12   ar
    31     6     7   ar
    32     3     4    1
    33    13    14    1
@<TRIPOS>MOLECULE
MolPort-046-949-846 MCULE-4469830685 PubChem-46951958
 30 33 0 0 0
SMALL
GASTEIGER

@<TRIPOS>ATOM
      1 C          11.6646   42.0063    7.3378 C.2     1  UNL1        0.2701
      2 O          11.1157   41.6233    6.2702 O.2     1  UNL1       -0.2681
      3 N          10.9023   42.1632    8.5412 N.am    1  UNL1       -0.2593
      4 H          11.3928   42.4645    9.3399 H       1  UNL1        0.1571
      5 C          13.1051   42.2968    7.3579 C.ar    1  UNL1        0.1512
      6 C          15.2463   42.2681    7.7333 C.ar    1  UNL1        0.0492
      7 C          14.0761   41.6602    8.1018 C.ar    1  UNL1        0.0145
      8 C          13.9923   40.4753    9.0118 C.3     1  UNL1        0.0293
      9 C          15.2828   40.3604    9.8536 C.3     1  UNL1        0.0048
     10 C          16.5394   40.5444    8.9716 C.3     1  UNL1        0.0066
     11 C          16.5771   41.9397    8.3308 C.3     1  UNL1        0.0449
     12 N          13.6891   43.2622    6.6146 N.ar    1  UNL1       -0.1687
     13 N          14.9959   43.2509    6.8499 N.ar    1  UNL1       -0.2800
     14 H          15.6627   43.8543    6.4491 H       1  UNL1        0.1886
     15 C          15.3277   39.0635   10.6861 C.3     1  UNL1        0.0003
     16 C          15.1468   37.8555    9.7833 C.3     1  UNL1        0.0000
     17 C          14.1956   39.0525   11.6983 C.3     1  UNL1        0.0000
     18 C          16.6486   38.9268   11.4278 C.3     1  UNL1        0.0000
     19 C           6.7140   41.4943   10.9019 C.ar    1  UNL1        0.1566
     20 C           7.5842   41.6214    9.8147 C.ar    1  UNL1        0.1230
     21 C           7.1073   41.5119    8.5167 C.ar    1  UNL1        0.0527
     22 C           5.7651   41.2762    8.2344 C.ar    1  UNL1        0.0083
     23 C           4.8800   41.1484    9.3151 C.ar    1  UNL1        0.0037
     24 C           5.3485   41.2568   10.6381 C.ar    1  UNL1        0.0385
     25 C           9.4982   41.9257    8.6990 C.ar    1  UNL1        0.1659
     26 S           8.3787   41.7070    7.4408 S.2     1  UNL1       -0.0513
     27 N           8.9184   41.8524    9.9211 N.ar    1  UNL1       -0.2208
     28 O           7.2069   41.6105   12.2078 O.3     1  UNL1       -0.4739
     29 C           8.8976   41.0942   13.8528 C.3     1  UNL1        0.0512
     30 C           8.5916   41.7377   12.5128 C.3     1  UNL1        0.2056
@<TRIPOS>BOND
     1    29    30    1
     2    30    28    1
     3    19    28    1
     4    20    21   ar
     5    20    27   ar
     6    21    26   ar
     7    22    23   ar
     8    24    19   ar
     9    25    26   ar
    10    25     3    1
    11     1     5    1
    12     7     5   ar
    13     8     7    1
    14     8     9    1
    15     9    10    1
    16     9    15    1
    17    10    11    1
    18    11     6    1
    19    15    16    1
    20    15    17    1
    21    15    18    1
    22     3     1   am
    23    13    12   ar
    24    13     6   ar
    25    19    20   ar
    26    21    22   ar
    27    23    24   ar
    28    25    27   ar
    29     1     2    2
    30     5    12   ar
    31     6     7   ar
    32     3     4    1
    33    13    14    1
@<TRIPOS>MOLECULE
MolPort-046-949-846 MCULE-4469830685 PubChem-46951958
 30 33 0 0 0
SMALL
GASTEIGER

@<TRIPOS>ATOM
      1 C          10.9018   41.0248   10.6911 C.2     1  UNL1        0.2701
      2 O          11.2350   40.6340   11.8417 O.2     1  UNL1       -0.2681
      3 N          11.2999   40.2959    9.5231 N.am    1  UNL1       -0.2593
      4 H          11.0052   40.6552    8.6552 H       1  UNL1        0.1571
      5 C          10.0935   42.2424   10.5362 C.ar    1  UNL1        0.1512
      6 C           8.6533   43.7364    9.8877 C.ar    1  UNL1        0.0492
      7 C           9.1402   42.4960    9.5726 C.ar    1  UNL1        0.0145
      8 C           8.5897   41.6256    8.4870 C.3     1  UNL1        0.0293
      9 C           7.7881   42.4783    7.4784 C.3     1  UNL1        0.0048
     10 C           6.8419   43.4591    8.2089 C.3     1  UNL1        0.0066
     11 C           7.6257   44.4567    9.0747 C.3     1  UNL1        0.0449
     12 N          10.1799   43.3130   11.3558 N.ar    1  UNL1       -0.1687
     13 N           9.3065   44.2295   10.9551 N.ar    1  UNL1       -0.2800
     14 H           9.1627   45.1125   11.3660 H       1  UNL1        0.1886
     15 C           7.0545   41.6156    6.4321 C.3     1  UNL1        0.0003
     16 C           6.0760   40.6789    7.1193 C.3     1  UNL1        0.0000
     17 C           8.0503   40.7590    5.6700 C.3     1  UNL1        0.0000
     18 C           6.2909   42.4787    5.4394 C.3     1  UNL1        0.0000
     19 C          15.3158   37.5795    9.2878 C.ar    1  UNL1        0.1566
     20 C          13.9518   37.8725    9.3817 C.ar    1  UNL1        0.1230
     21 C          13.0182   36.8504    9.4711 C.ar    1  UNL1        0.0527
     22 C          13.3830   35.5074    9.4736 C.ar    1  UNL1        0.0083
     23 C          14.7482   35.1983    9.3818 C.ar    1  UNL1        0.0037
     24 C          15.7078   36.2241    9.2903 C.ar    1  UNL1        0.0385
     25 C          12.0837   39.0970    9.4914 C.ar    1  UNL1        0.1659
     26 S          11.4802   37.5115    9.5689 S.2     1  UNL1       -0.0513
     27 N          13.4345   39.1284    9.3927 N.ar    1  UNL1       -0.2208
     28 O          16.2491   38.6204    9.2017 O.3     1  UNL1       -0.4739
     29 C          16.3313   38.7377   11.6121 C.3     1  UNL1        0.0512
     30 C          17.0319   39.0623   10.3055 C.3     1  UNL1        0.2056
@<TRIPOS>BOND
     1    29    30    1
     2    30    28    1
     3    19    28    1
     4    20    21   ar
     5    20    27   ar
     6    21    26   ar
     7    22    23   ar
     8    24    19   ar
     9    25    26   ar
    10    25     3    1
    11     1     5    1
    12     7     5   ar
    13     8     7    1
    14     8     9    1
    15     9    10    1
    16     9    15    1
    17    10    11    1
    18    11     6    1
    19    15    16    1
    20    15    17    1
    21    15    18    1
    22     3     1   am
    23    13    12   ar
    24    13     6   ar
    25    19    20   ar
    26    21    22   ar
    27    23    24   ar
    28    25    27   ar
    29     1     2    2
    30     5    12   ar
    31     6     7   ar
    32     3     4    1
    33    13    14    1
