@<TRIPOS>MOLECULE
MolPort-005-023-412 12001415 CHEMBL1444492 CSSS00159758377 MCULE-4216270797 PubChem-24790322 ZINC000012001415
 31 34 0 0 0
SMALL
GASTEIGER

@<TRIPOS>ATOM
      1 C          12.3561   39.4614    8.2971 C.ar    1  UNL1        0.1328
      2 C          11.3633   39.5855    7.3436 C.ar    1  UNL1        0.0565
      3 C          10.4220   38.6397    7.7333 C.ar    1  UNL1        0.1230
      4 N          10.8480   38.0052    8.8453 N.ar    1  UNL1       -0.1666
      5 N          12.0184   38.5155    9.1849 N.ar    1  UNL1       -0.2394
      6 C          12.8344   38.0647   10.3100 C.3     1  UNL1        0.1093
      7 C          12.6213   36.5689   10.5921 C.3     1  UNL1        0.0418
      8 C          13.7489   35.6961   10.0349 C.3     1  UNL1        0.0741
      9 C          15.0595   37.4737    9.1605 C.3     1  UNL1        0.0741
     10 C          14.3095   38.4326   10.1027 C.3     1  UNL1        0.0418
     11 N          14.2747   36.2863    8.8094 N.3     1  UNL1       -0.2725
     12 C          15.1893   35.3182    8.2266 C.3     1  UNL1        0.0721
     13 C          15.4951   35.6874    6.7816 C.3     1  UNL1        0.0173
     14 C          16.9789   35.5039    6.4644 C.3     1  UNL1        0.0014
     15 C          17.2819   35.4311    4.9659 C.3     1  UNL1        0.0000
     16 C          18.4160   36.3521    4.5446 C.3     1  UNL1        0.0000
     17 C          17.9045   37.1573    3.3645 C.3     1  UNL1        0.0000
     18 C          16.6374   36.4723    2.8962 C.3     1  UNL1        0.0000
     19 C          16.0761   35.7840    4.1182 C.3     1  UNL1        0.0000
     20 C          13.8082   41.4937    7.7727 C.2     1  UNL1        0.2535
     21 O          12.8634   42.0993    7.1980 O.2     1  UNL1       -0.2697
     22 N          13.5824   40.2014    8.3551 N.am    1  UNL1       -0.2659
     23 H          14.3350   39.7874    8.8361 H       1  UNL1        0.1566
     24 C          15.5021   43.2836    7.1450 C.ar    1  UNL1        0.1430
     25 C          15.1565   42.1057    7.8522 C.ar    1  UNL1        0.0876
     26 C          16.1264   41.4852    8.6561 C.ar    1  UNL1        0.0076
     27 C          17.4152   42.0120    8.7629 C.ar    1  UNL1        0.0003
     28 C          17.7542   43.1705    8.0653 C.ar    1  UNL1        0.0031
     29 C          16.8045   43.8017    7.2617 C.ar    1  UNL1        0.0371
     30 C          14.8361   45.1216    5.6191 C.3     1  UNL1        0.2525
     31 O          14.5553   43.9278    6.3385 O.3     1  UNL1       -0.4713
@<TRIPOS>BOND
     1    30    31    1
     2    24    31    1
     3    25    26   ar
     4    25    20    1
     5    27    28   ar
     6    29    24   ar
     7    20    22   am
     8     2     3   ar
     9     6     5    1
    10     6     7    1
    11     7     8    1
    12     8    11    1
    13    12    11    1
    14    12    13    1
    15    13    14    1
    16    14    15    1
    17    15    16    1
    18    16    17    1
    19    17    18    1
    20    18    19    1
    21    19    15    1
    22     9    11    1
    23     9    10    1
    24    10     6    1
    25    22     1    1
    26     5     4   ar
    27     5     1   ar
    28    24    25   ar
    29    26    27   ar
    30    28    29   ar
    31    20    21    2
    32     1     2   ar
    33     3     4   ar
    34    22    23    1
@<TRIPOS>MOLECULE
MolPort-005-023-412 12001415 CHEMBL1444492 CSSS00159758377 MCULE-4216270797 PubChem-24790322 ZINC000012001415
 31 34 0 0 0
SMALL
GASTEIGER

@<TRIPOS>ATOM
      1 C           8.8254   41.5296   10.2314 C.ar    1  UNL1        0.1328
      2 C           9.4058   41.7799   11.4606 C.ar    1  UNL1        0.0565
      3 C          10.5915   41.0560   11.4106 C.ar    1  UNL1        0.1230
      4 N          10.6883   40.4229   10.2230 N.ar    1  UNL1       -0.1666
      5 N           9.6164   40.7222    9.5109 N.ar    1  UNL1       -0.2394
      6 C           9.3206   40.1960    8.1803 C.3     1  UNL1        0.1093
      7 C           9.0272   41.3283    7.1832 C.3     1  UNL1        0.0418
      8 C          10.2210   41.6420    6.2775 C.3     1  UNL1        0.0741
      9 C          11.6693   39.9750    7.1526 C.3     1  UNL1        0.0741
     10 C          10.4292   39.2483    7.7039 C.3     1  UNL1        0.0418
     11 N          11.4665   41.4191    7.0025 N.3     1  UNL1       -0.2725
     12 C          12.5438   41.9241    6.1671 C.3     1  UNL1        0.0721
     13 C          13.8471   41.9585    6.9535 C.3     1  UNL1        0.0173
     14 C          14.6697   43.1998    6.6095 C.3     1  UNL1        0.0014
     15 C          16.1758   43.0125    6.8076 C.3     1  UNL1        0.0000
     16 C          16.5201   42.3157    8.1145 C.3     1  UNL1        0.0000
     17 C          17.5689   43.1725    8.7991 C.3     1  UNL1        0.0000
     18 C          18.0716   44.1485    7.7556 C.3     1  UNL1        0.0000
     19 C          16.9259   44.3294    6.7878 C.3     1  UNL1        0.0000
     20 C           7.3327   43.3253    9.2012 C.2     1  UNL1        0.2535
     21 O           8.2984   44.1167    9.0261 O.2     1  UNL1       -0.2697
     22 N           7.5639   42.0258    9.7653 N.am    1  UNL1       -0.2659
     23 H           6.7890   41.4231    9.8384 H       1  UNL1        0.1566
     24 C           4.8057   43.0883    9.3599 C.ar    1  UNL1        0.1430
     25 C           5.9542   43.7259    8.8295 C.ar    1  UNL1        0.0876
     26 C           5.7872   44.7743    7.9103 C.ar    1  UNL1        0.0076
     27 C           4.5131   45.1891    7.5173 C.ar    1  UNL1        0.0003
     28 C           3.3838   44.5598    8.0390 C.ar    1  UNL1        0.0031
     29 C           3.5291   43.5165    8.9537 C.ar    1  UNL1        0.0371
     30 C           4.2003   41.9811   11.4948 C.3     1  UNL1        0.2525
     31 O           4.9397   42.0424   10.2819 O.3     1  UNL1       -0.4713
@<TRIPOS>BOND
     1    30    31    1
     2    24    31    1
     3    25    26   ar
     4    25    20    1
     5    27    28   ar
     6    29    24   ar
     7    20    22   am
     8     2     3   ar
     9     6     5    1
    10     6     7    1
    11     7     8    1
    12     8    11    1
    13    12    11    1
    14    12    13    1
    15    13    14    1
    16    14    15    1
    17    15    16    1
    18    16    17    1
    19    17    18    1
    20    18    19    1
    21    19    15    1
    22     9    11    1
    23     9    10    1
    24    10     6    1
    25    22     1    1
    26     5     4   ar
    27     5     1   ar
    28    24    25   ar
    29    26    27   ar
    30    28    29   ar
    31    20    21    2
    32     1     2   ar
    33     3     4   ar
    34    22    23    1
@<TRIPOS>MOLECULE
MolPort-005-023-412 12001415 CHEMBL1444492 CSSS00159758377 MCULE-4216270797 PubChem-24790322 ZINC000012001415
 31 34 0 0 0
SMALL
GASTEIGER

@<TRIPOS>ATOM
      1 C          12.5604   37.1968   10.4167 C.ar    1  UNL1        0.1328
      2 C          12.1492   36.0166    9.8264 C.ar    1  UNL1        0.0565
      3 C          13.1928   35.1394   10.0981 C.ar    1  UNL1        0.1230
      4 N          14.1514   35.7770   10.8019 N.ar    1  UNL1       -0.1666
      5 N          13.7559   37.0224   10.9974 N.ar    1  UNL1       -0.2394
      6 C          14.5365   38.0521   11.6794 C.3     1  UNL1        0.1093
      7 C          15.9137   38.2373   11.0227 C.3     1  UNL1        0.0418
      8 C          15.9725   39.4645   10.1093 C.3     1  UNL1        0.0741
      9 C          13.7473   40.1982   10.4992 C.3     1  UNL1        0.0741
     10 C          13.7434   39.3609   11.7909 C.3     1  UNL1        0.0418
     11 N          14.6724   39.6824    9.4857 N.3     1  UNL1       -0.2725
     12 C          14.8465   40.7240    8.4866 C.3     1  UNL1        0.0721
     13 C          13.5261   41.0020    7.7813 C.3     1  UNL1        0.0173
     14 C          13.4035   42.4755    7.3945 C.3     1  UNL1        0.0014
     15 C          14.5009   42.9531    6.4403 C.3     1  UNL1        0.0000
     16 C          15.8346   43.1776    7.1351 C.3     1  UNL1        0.0000
     17 C          16.3018   44.5656    6.7377 C.3     1  UNL1        0.0000
     18 C          15.4362   44.9902    5.5695 C.3     1  UNL1        0.0000
     19 C          14.1323   44.2474    5.7431 C.3     1  UNL1        0.0000
     20 C          10.9020   38.8665    9.4290 C.2     1  UNL1        0.2535
     21 O          10.5825   38.0892    8.4891 O.2     1  UNL1       -0.2697
     22 N          11.8532   38.4436   10.4172 N.am    1  UNL1       -0.2659
     23 H          12.0357   39.0637   11.1598 H       1  UNL1        0.1566
     24 C           9.2743   40.6603    8.6544 C.ar    1  UNL1        0.1430
     25 C          10.3028   40.2197    9.5233 C.ar    1  UNL1        0.0876
     26 C          10.7823   41.0963   10.5100 C.ar    1  UNL1        0.0076
     27 C          10.2614   42.3852   10.6406 C.ar    1  UNL1        0.0003
     28 C           9.2502   42.8180    9.7839 C.ar    1  UNL1        0.0031
     29 C           8.7604   41.9617    8.7975 C.ar    1  UNL1        0.0371
     30 C           9.2938   38.5065    7.4254 C.3     1  UNL1        0.2525
     31 O           8.7722   39.8076    7.6632 O.3     1  UNL1       -0.4713
@<TRIPOS>BOND
     1    30    31    1
     2    24    31    1
     3    25    26   ar
     4    25    20    1
     5    27    28   ar
     6    29    24   ar
     7    20    22   am
     8     2     3   ar
     9     6     5    1
    10     6     7    1
    11     7     8    1
    12     8    11    1
    13    12    11    1
    14    12    13    1
    15    13    14    1
    16    14    15    1
    17    15    16    1
    18    16    17    1
    19    17    18    1
    20    18    19    1
    21    19    15    1
    22     9    11    1
    23     9    10    1
    24    10     6    1
    25    22     1    1
    26     5     4   ar
    27     5     1   ar
    28    24    25   ar
    29    26    27   ar
    30    28    29   ar
    31    20    21    2
    32     1     2   ar
    33     3     4   ar
    34    22    23    1
@<TRIPOS>MOLECULE
MolPort-005-023-412 12001415 CHEMBL1444492 CSSS00159758377 MCULE-4216270797 PubChem-24790322 ZINC000012001415
 31 34 0 0 0
SMALL
GASTEIGER

@<TRIPOS>ATOM
      1 C          11.3193   41.9074    7.3612 C.ar    1  UNL1        0.1328
      2 C          10.6395   41.3182    6.3119 C.ar    1  UNL1        0.0565
      3 C           9.3443   41.1876    6.7996 C.ar    1  UNL1        0.1230
      4 N           9.2811   41.6709    8.0578 N.ar    1  UNL1       -0.1666
      5 N          10.4818   42.1128    8.3875 N.ar    1  UNL1       -0.2394
      6 C          10.8411   42.6705    9.6893 C.3     1  UNL1        0.1093
      7 C           9.8822   43.7999   10.0983 C.3     1  UNL1        0.0418
      8 C           8.8298   43.3431   11.1121 C.3     1  UNL1        0.0741
      9 C           9.5985   41.1043   11.3093 C.3     1  UNL1        0.0741
     10 C          10.9556   41.5665   10.7487 C.3     1  UNL1        0.0418
     11 N           8.4818   41.9475   10.8721 N.3     1  UNL1       -0.2725
     12 C           7.3448   41.6377   11.7235 C.3     1  UNL1        0.0721
     13 C           6.0858   41.4786   10.8823 C.3     1  UNL1        0.0173
     14 C           6.4184   41.4218    9.3917 C.3     1  UNL1        0.0014
     15 C           5.4188   42.1749    8.5105 C.3     1  UNL1        0.0000
     16 C           6.0632   43.2897    7.7019 C.3     1  UNL1        0.0000
     17 C           5.2332   44.5365    7.9446 C.3     1  UNL1        0.0000
     18 C           3.9449   44.0732    8.5928 C.3     1  UNL1        0.0000
     19 C           4.2952   42.7947    9.3171 C.3     1  UNL1        0.0000
     20 C          13.7689   41.4052    7.8717 C.2     1  UNL1        0.2535
     21 O          13.5138   40.2316    8.2555 O.2     1  UNL1       -0.2697
     22 N          12.7110   42.2490    7.3932 N.am    1  UNL1       -0.2659
     23 H          12.9632   43.1397    7.0578 H       1  UNL1        0.1566
     24 C          15.5893   43.0072    7.1055 C.ar    1  UNL1        0.1430
     25 C          15.1573   41.9248    7.9109 C.ar    1  UNL1        0.0876
     26 C          16.0767   41.3117    8.7773 C.ar    1  UNL1        0.0076
     27 C          17.3994   41.7533    8.8507 C.ar    1  UNL1        0.0003
     28 C          17.8235   42.8176    8.0564 C.ar    1  UNL1        0.0031
     29 C          16.9249   43.4400    7.1896 C.ar    1  UNL1        0.0371
     30 C          14.9498   44.9158    5.6569 C.3     1  UNL1        0.2525
     31 O          14.6946   43.6420    6.2346 O.3     1  UNL1       -0.4713
@<TRIPOS>BOND
     1    30    31    1
     2    24    31    1
     3    25    26   ar
     4    25    20    1
     5    27    28   ar
     6    29    24   ar
     7    20    22   am
     8     2     3   ar
     9     6     5    1
    10     6     7    1
    11     7     8    1
    12     8    11    1
    13    12    11    1
    14    12    13    1
    15    13    14    1
    16    14    15    1
    17    15    16    1
    18    16    17    1
    19    17    18    1
    20    18    19    1
    21    19    15    1
    22     9    11    1
    23     9    10    1
    24    10     6    1
    25    22     1    1
    26     5     4   ar
    27     5     1   ar
    28    24    25   ar
    29    26    27   ar
    30    28    29   ar
    31    20    21    2
    32     1     2   ar
    33     3     4   ar
    34    22    23    1
@<TRIPOS>MOLECULE
MolPort-005-023-412 12001415 CHEMBL1444492 CSSS00159758377 MCULE-4216270797 PubChem-24790322 ZINC000012001415
 31 34 0 0 0
SMALL
GASTEIGER

@<TRIPOS>ATOM
      1 C           9.2939   41.0762   10.3424 C.ar    1  UNL1        0.1328
      2 C           9.9384   41.3222   11.5401 C.ar    1  UNL1        0.0565
      3 C          11.2530   40.9522   11.2808 C.ar    1  UNL1        0.1230
      4 N          11.3603   40.5159   10.0085 N.ar    1  UNL1       -0.1666
      5 N          10.1687   40.6020    9.4443 N.ar    1  UNL1       -0.2394
      6 C           9.8546   40.1804    8.0810 C.3     1  UNL1        0.1093
      7 C           9.5284   41.3850    7.1838 C.3     1  UNL1        0.0418
      8 C          10.7009   41.7873    6.2854 C.3     1  UNL1        0.0741
      9 C          12.1862   40.0759    6.9974 C.3     1  UNL1        0.0741
     10 C          10.9660   39.2898    7.5101 C.3     1  UNL1        0.0418
     11 N          11.9626   41.5244    6.9679 N.3     1  UNL1       -0.2725
     12 C          13.0176   42.1100    6.1571 C.3     1  UNL1        0.0721
     13 C          13.7789   43.1557    6.9602 C.3     1  UNL1        0.0173
     14 C          14.5116   44.1342    6.0429 C.3     1  UNL1        0.0014
     15 C          15.9121   44.5064    6.5357 C.3     1  UNL1        0.0000
     16 C          17.0098   44.1009    5.5648 C.3     1  UNL1        0.0000
     17 C          18.0401   43.3330    6.3719 C.3     1  UNL1        0.0000
     18 C          17.7208   43.5917    7.8297 C.3     1  UNL1        0.0000
     19 C          16.2374   43.8732    7.8738 C.3     1  UNL1        0.0000
     20 C           6.8845   41.5446   11.0419 C.2     1  UNL1        0.2535
     21 O           7.1988   41.6932   12.2539 O.2     1  UNL1       -0.2697
     22 N           7.9009   41.2705   10.0661 N.am    1  UNL1       -0.2659
     23 H           7.6165   41.2108    9.1255 H       1  UNL1        0.1566
     24 C           5.0342   42.5830    9.6402 C.ar    1  UNL1        0.1430
     25 C           5.4689   41.6495   10.6131 C.ar    1  UNL1        0.0876
     26 C           4.5260   40.7922   11.2028 C.ar    1  UNL1        0.0076
     27 C           3.1778   40.8513   10.8440 C.ar    1  UNL1        0.0003
     28 C           2.7512   41.7714    9.8874 C.ar    1  UNL1        0.0031
     29 C           3.6729   42.6315    9.2899 C.ar    1  UNL1        0.0371
     30 C           6.2269   43.4266    7.6362 C.3     1  UNL1        0.2525
     31 O           5.9516   43.4486    9.0309 O.3     1  UNL1       -0.4713
@<TRIPOS>BOND
     1    30    31    1
     2    24    31    1
     3    25    26   ar
     4    25    20    1
     5    27    28   ar
     6    29    24   ar
     7    20    22   am
     8     2     3   ar
     9     6     5    1
    10     6     7    1
    11     7     8    1
    12     8    11    1
    13    12    11    1
    14    12    13    1
    15    13    14    1
    16    14    15    1
    17    15    16    1
    18    16    17    1
    19    17    18    1
    20    18    19    1
    21    19    15    1
    22     9    11    1
    23     9    10    1
    24    10     6    1
    25    22     1    1
    26     5     4   ar
    27     5     1   ar
    28    24    25   ar
    29    26    27   ar
    30    28    29   ar
    31    20    21    2
    32     1     2   ar
    33     3     4   ar
    34    22    23    1
@<TRIPOS>MOLECULE
MolPort-005-023-412 12001415 CHEMBL1444492 CSSS00159758377 MCULE-4216270797 PubChem-24790322 ZINC000012001415
 31 34 0 0 0
SMALL
GASTEIGER

@<TRIPOS>ATOM
      1 C           9.7359   41.4712   11.4762 C.ar    1  UNL1        0.1328
      2 C           8.9237   41.0054   12.4929 C.ar    1  UNL1        0.0565
      3 C           7.6920   41.5862   12.2134 C.ar    1  UNL1        0.1230
      4 N           7.7887   42.3448   11.1017 N.ar    1  UNL1       -0.1666
      5 N           9.0299   42.2629   10.6567 N.ar    1  UNL1       -0.2394
      6 C           9.5530   42.9797    9.4958 C.3     1  UNL1        0.1093
      7 C           9.3414   42.1785    8.2013 C.3     1  UNL1        0.0418
      8 C           8.1492   42.6817    7.3833 C.3     1  UNL1        0.0741
      9 C           7.5589   44.4661    8.8356 C.3     1  UNL1        0.0741
     10 C           8.9805   44.4014    9.4226 C.3     1  UNL1        0.0418
     11 N           7.1124   43.1871    8.2755 N.3     1  UNL1       -0.2725
     12 C           5.9398   43.4564    7.4595 C.3     1  UNL1        0.0721
     13 C           4.9486   44.3168    8.2309 C.3     1  UNL1        0.0173
     14 C           3.8869   43.4588    8.9182 C.3     1  UNL1        0.0014
     15 C           4.4663   42.4181    9.8794 C.3     1  UNL1        0.0000
     16 C           4.2939   40.9913    9.3831 C.3     1  UNL1        0.0000
     17 C           3.6745   40.2072   10.5251 C.3     1  UNL1        0.0000
     18 C           3.8111   41.0718   11.7612 C.3     1  UNL1        0.0000
     19 C           3.8378   42.4953   11.2565 C.3     1  UNL1        0.0000
     20 C          11.6703   40.0757   10.5681 C.2     1  UNL1        0.2535
     21 O          10.8977   39.2824    9.9653 O.2     1  UNL1       -0.2697
     22 N          11.1296   41.1871   11.2979 N.am    1  UNL1       -0.2659
     23 H          11.7715   41.8082   11.7119 H       1  UNL1        0.1566
     24 C          13.9669   40.4639    9.5474 C.ar    1  UNL1        0.1430
     25 C          13.1384   39.8703   10.5313 C.ar    1  UNL1        0.0876
     26 C          13.7236   39.0489   11.5084 C.ar    1  UNL1        0.0076
     27 C          15.0999   38.8131   11.5185 C.ar    1  UNL1        0.0003
     28 C          15.9138   39.3968   10.5487 C.ar    1  UNL1        0.0031
     29 C          15.3512   40.2162    9.5698 C.ar    1  UNL1        0.0371
     30 C          14.1344   41.7138    7.4120 C.3     1  UNL1        0.2525
     31 O          13.4132   41.2915    8.5622 O.3     1  UNL1       -0.4713
@<TRIPOS>BOND
     1    30    31    1
     2    24    31    1
     3    25    26   ar
     4    25    20    1
     5    27    28   ar
     6    29    24   ar
     7    20    22   am
     8     2     3   ar
     9     6     5    1
    10     6     7    1
    11     7     8    1
    12     8    11    1
    13    12    11    1
    14    12    13    1
    15    13    14    1
    16    14    15    1
    17    15    16    1
    18    16    17    1
    19    17    18    1
    20    18    19    1
    21    19    15    1
    22     9    11    1
    23     9    10    1
    24    10     6    1
    25    22     1    1
    26     5     4   ar
    27     5     1   ar
    28    24    25   ar
    29    26    27   ar
    30    28    29   ar
    31    20    21    2
    32     1     2   ar
    33     3     4   ar
    34    22    23    1
@<TRIPOS>MOLECULE
MolPort-005-023-412 12001415 CHEMBL1444492 CSSS00159758377 MCULE-4216270797 PubChem-24790322 ZINC000012001415
 31 34 0 0 0
SMALL
GASTEIGER

@<TRIPOS>ATOM
      1 C          11.4297   41.8231    7.2734 C.ar    1  UNL1        0.1328
      2 C          10.7317   41.2008    6.2557 C.ar    1  UNL1        0.0565
      3 C           9.5122   40.8883    6.8452 C.ar    1  UNL1        0.1230
      4 N           9.5079   41.3037    8.1290 N.ar    1  UNL1       -0.1666
      5 N          10.6720   41.8767    8.3779 N.ar    1  UNL1       -0.2394
      6 C          11.0804   42.4165    9.6728 C.3     1  UNL1        0.1093
      7 C          10.2038   43.6106   10.0830 C.3     1  UNL1        0.0418
      8 C           9.1325   43.2321   11.1091 C.3     1  UNL1        0.0741
      9 C           9.7501   40.9477   11.3141 C.3     1  UNL1        0.0741
     10 C          11.1300   41.3137   10.7384 C.3     1  UNL1        0.0418
     11 N           8.6888   41.8617   10.8814 N.3     1  UNL1       -0.2725
     12 C           7.5416   41.6346   11.7450 C.3     1  UNL1        0.0721
     13 C           6.2663   41.5607   10.9166 C.3     1  UNL1        0.0173
     14 C           6.5796   41.4528    9.4246 C.3     1  UNL1        0.0014
     15 C           5.5682   42.1749    8.5311 C.3     1  UNL1        0.0000
     16 C           6.2065   43.2393    7.6526 C.3     1  UNL1        0.0000
     17 C           5.3984   44.5079    7.8526 C.3     1  UNL1        0.0000
     18 C           4.1208   44.0951    8.5537 C.3     1  UNL1        0.0000
     19 C           4.4727   42.8494    9.3324 C.3     1  UNL1        0.0000
     20 C          13.9511   41.6387    7.6234 C.2     1  UNL1        0.2535
     21 O          13.8696   40.4528    8.0438 O.2     1  UNL1       -0.2697
     22 N          12.7673   42.3337    7.2042 N.am    1  UNL1       -0.2659
     23 H          12.8842   43.2398    6.8372 H       1  UNL1        0.1566
     24 C          16.3781   41.9151    8.3309 C.ar    1  UNL1        0.1430
     25 C          15.2636   42.3257    7.5586 C.ar    1  UNL1        0.0876
     26 C          15.3991   43.4299    6.7017 C.ar    1  UNL1        0.0076
     27 C          16.6088   44.1205    6.6054 C.ar    1  UNL1        0.0003
     28 C          17.7043   43.7162    7.3670 C.ar    1  UNL1        0.0031
     29 C          17.5897   42.6214    8.2240 C.ar    1  UNL1        0.0371
     30 C          17.3932   40.2567    9.8701 C.3     1  UNL1        0.2525
     31 O          16.2753   40.8148    9.1916 O.3     1  UNL1       -0.4713
@<TRIPOS>BOND
     1    30    31    1
     2    24    31    1
     3    25    26   ar
     4    25    20    1
     5    27    28   ar
     6    29    24   ar
     7    20    22   am
     8     2     3   ar
     9     6     5    1
    10     6     7    1
    11     7     8    1
    12     8    11    1
    13    12    11    1
    14    12    13    1
    15    13    14    1
    16    14    15    1
    17    15    16    1
    18    16    17    1
    19    17    18    1
    20    18    19    1
    21    19    15    1
    22     9    11    1
    23     9    10    1
    24    10     6    1
    25    22     1    1
    26     5     4   ar
    27     5     1   ar
    28    24    25   ar
    29    26    27   ar
    30    28    29   ar
    31    20    21    2
    32     1     2   ar
    33     3     4   ar
    34    22    23    1
@<TRIPOS>MOLECULE
MolPort-005-023-412 12001415 CHEMBL1444492 CSSS00159758377 MCULE-4216270797 PubChem-24790322 ZINC000012001415
 31 34 0 0 0
SMALL
GASTEIGER

@<TRIPOS>ATOM
      1 C          13.9157   42.1294    7.3134 C.ar    1  UNL1        0.1328
      2 C          14.5859   43.3121    7.0634 C.ar    1  UNL1        0.0565
      3 C          13.9752   43.7912    5.9102 C.ar    1  UNL1        0.1230
      4 N          13.0107   42.9336    5.5163 N.ar    1  UNL1       -0.1666
      5 N          12.9762   41.9325    6.3777 N.ar    1  UNL1       -0.2394
      6 C          12.0970   40.7699    6.2766 C.3     1  UNL1        0.1093
      7 C          11.7707   40.1926    7.6632 C.3     1  UNL1        0.0418
      8 C          10.3845   40.6066    8.1642 C.3     1  UNL1        0.0741
      9 C           9.7652   41.8577    6.2424 C.3     1  UNL1        0.0741
     10 C          10.8449   41.0964    5.4521 C.3     1  UNL1        0.0418
     11 N          10.0583   41.9416    7.6763 N.3     1  UNL1       -0.2725
     12 C           8.8357   42.3546    8.3457 C.3     1  UNL1        0.0721
     13 C           8.0303   41.1341    8.7699 C.3     1  UNL1        0.0173
     14 C           6.5928   41.2125    8.2569 C.3     1  UNL1        0.0014
     15 C           5.6208   41.8548    9.2495 C.3     1  UNL1        0.0000
     16 C           4.4518   40.9499    9.6050 C.3     1  UNL1        0.0000
     17 C           3.1917   41.7714    9.4058 C.3     1  UNL1        0.0000
     18 C           3.6370   43.2136    9.2789 C.3     1  UNL1        0.0000
     19 C           5.0420   43.1547    8.7274 C.3     1  UNL1        0.0000
     20 C          15.4576   40.8849    8.9219 C.2     1  UNL1        0.2535
     21 O          16.4882   41.4607    8.4791 O.2     1  UNL1       -0.2697
     22 N          14.1666   41.2162    8.3894 N.am    1  UNL1       -0.2659
     23 H          13.3856   40.7782    8.7986 H       1  UNL1        0.1566
     24 C          16.7911   39.2300   10.3185 C.ar    1  UNL1        0.1430
     25 C          15.5669   39.8636    9.9915 C.ar    1  UNL1        0.0876
     26 C          14.4071   39.5099   10.6997 C.ar    1  UNL1        0.0076
     27 C          14.4483   38.5488   11.7118 C.ar    1  UNL1        0.0003
     28 C          15.6534   37.9251   12.0316 C.ar    1  UNL1        0.0031
     29 C          16.8167   38.2631   11.3395 C.ar    1  UNL1        0.0371
     30 C          19.1450   38.7719    9.6864 C.3     1  UNL1        0.2525
     31 O          17.9658   39.5645    9.6329 O.3     1  UNL1       -0.4713
@<TRIPOS>BOND
     1    30    31    1
     2    24    31    1
     3    25    26   ar
     4    25    20    1
     5    27    28   ar
     6    29    24   ar
     7    20    22   am
     8     2     3   ar
     9     6     5    1
    10     6     7    1
    11     7     8    1
    12     8    11    1
    13    12    11    1
    14    12    13    1
    15    13    14    1
    16    14    15    1
    17    15    16    1
    18    16    17    1
    19    17    18    1
    20    18    19    1
    21    19    15    1
    22     9    11    1
    23     9    10    1
    24    10     6    1
    25    22     1    1
    26     5     4   ar
    27     5     1   ar
    28    24    25   ar
    29    26    27   ar
    30    28    29   ar
    31    20    21    2
    32     1     2   ar
    33     3     4   ar
    34    22    23    1
@<TRIPOS>MOLECULE
MolPort-005-023-412 12001415 CHEMBL1444492 CSSS00159758377 MCULE-4216270797 PubChem-24790322 ZINC000012001415
 31 34 0 0 0
SMALL
GASTEIGER

@<TRIPOS>ATOM
      1 C          14.1786   41.4558    7.6289 C.ar    1  UNL1        0.1328
      2 C          14.6188   42.7028    7.2269 C.ar    1  UNL1        0.0565
      3 C          13.5696   43.1802    6.4500 C.ar    1  UNL1        0.1230
      4 N          12.5827   42.2612    6.4042 N.ar    1  UNL1       -0.1666
      5 N          12.9572   41.2217    7.1286 N.ar    1  UNL1       -0.2394
      6 C          12.1841   39.9928    7.2933 C.3     1  UNL1        0.1093
      7 C          12.0462   39.6130    8.7763 C.3     1  UNL1        0.0418
      8 C          10.6815   39.9907    9.3585 C.3     1  UNL1        0.0741
      9 C           9.7688   40.8785    7.3532 C.3     1  UNL1        0.0741
     10 C          10.8344   40.0903    6.5702 C.3     1  UNL1        0.0418
     11 N          10.1878   41.2051    8.7195 N.3     1  UNL1       -0.2725
     12 C           9.0014   41.6205    9.4497 C.3     1  UNL1        0.0721
     13 C           8.2353   42.6692    8.6551 C.3     1  UNL1        0.0173
     14 C           6.8005   42.8104    9.1623 C.3     1  UNL1        0.0014
     15 C           6.1966   41.4986    9.6692 C.3     1  UNL1        0.0000
     16 C           4.9030   41.1284    8.9611 C.3     1  UNL1        0.0000
     17 C           3.8847   40.8313   10.0462 C.3     1  UNL1        0.0000
     18 C           4.6641   40.6912   11.3374 C.3     1  UNL1        0.0000
     19 C           5.9013   41.5386   11.1553 C.3     1  UNL1        0.0000
     20 C          16.1394   40.7710    9.1121 C.2     1  UNL1        0.2535
     21 O          16.6630   41.9167    9.0570 O.2     1  UNL1       -0.2697
     22 N          14.8946   40.5187    8.4436 N.am    1  UNL1       -0.2659
     23 H          14.4981   39.6244    8.5543 H       1  UNL1        0.1566
     24 C          16.0738   38.7164   10.6092 C.ar    1  UNL1        0.1430
     25 C          16.8006   39.6766    9.8632 C.ar    1  UNL1        0.0876
     26 C          18.2024   39.5983    9.8357 C.ar    1  UNL1        0.0076
     27 C          18.8797   38.5941   10.5305 C.ar    1  UNL1        0.0003
     28 C          18.1632   37.6506   11.2653 C.ar    1  UNL1        0.0031
     29 C          16.7700   37.7115   11.3047 C.ar    1  UNL1        0.0371
     30 C          13.9466   39.0344   11.8437 C.3     1  UNL1        0.2525
     31 O          14.6746   38.7656   10.6524 O.3     1  UNL1       -0.4713
@<TRIPOS>BOND
     1    30    31    1
     2    24    31    1
     3    25    26   ar
     4    25    20    1
     5    27    28   ar
     6    29    24   ar
     7    20    22   am
     8     2     3   ar
     9     6     5    1
    10     6     7    1
    11     7     8    1
    12     8    11    1
    13    12    11    1
    14    12    13    1
    15    13    14    1
    16    14    15    1
    17    15    16    1
    18    16    17    1
    19    17    18    1
    20    18    19    1
    21    19    15    1
    22     9    11    1
    23     9    10    1
    24    10     6    1
    25    22     1    1
    26     5     4   ar
    27     5     1   ar
    28    24    25   ar
    29    26    27   ar
    30    28    29   ar
    31    20    21    2
    32     1     2   ar
    33     3     4   ar
    34    22    23    1
@<TRIPOS>MOLECULE
MolPort-005-023-412 12001415 CHEMBL1444492 CSSS00159758377 MCULE-4216270797 PubChem-24790322 ZINC000012001415
 31 34 0 0 0
SMALL
GASTEIGER

@<TRIPOS>ATOM
      1 C           9.8912   40.9220    9.2987 C.ar    1  UNL1        0.1328
      2 C           9.2421   42.0959    9.6318 C.ar    1  UNL1        0.0565
      3 C           9.6006   42.2970   10.9597 C.ar    1  UNL1        0.1230
      4 N          10.4073   41.2961   11.3697 N.ar    1  UNL1       -0.1666
      5 N          10.5847   40.4708   10.3533 N.ar    1  UNL1       -0.2394
      6 C          11.3592   39.2328   10.4045 C.3     1  UNL1        0.1093
      7 C          11.5951   38.6618    8.9971 C.3     1  UNL1        0.0418
      8 C          12.9986   38.9631    8.4649 C.3     1  UNL1        0.0741
      9 C          13.7787   40.1087   10.3940 C.3     1  UNL1        0.0741
     10 C          12.6572   39.4277   11.1990 C.3     1  UNL1        0.0418
     11 N          13.4557   40.2520    8.9712 N.3     1  UNL1       -0.2725
     12 C          14.6918   40.5708    8.2755 C.3     1  UNL1        0.0721
     13 C          15.7637   40.9887    9.2727 C.3     1  UNL1        0.0173
     14 C          16.9262   41.6935    8.5744 C.3     1  UNL1        0.0014
     15 C          16.5693   43.0817    8.0375 C.3     1  UNL1        0.0000
     16 C          15.3809   43.0634    7.0892 C.3     1  UNL1        0.0000
     17 C          15.8112   43.8112    5.8409 C.3     1  UNL1        0.0000
     18 C          17.0880   44.5430    6.1994 C.3     1  UNL1        0.0000
     19 C          17.7253   43.7266    7.2992 C.3     1  UNL1        0.0000
     20 C          10.3344   40.7690    6.7899 C.2     1  UNL1        0.2535
     21 O          10.9174   41.8866    6.7609 O.2     1  UNL1       -0.2697
     22 N           9.8436   40.2485    8.0342 N.am    1  UNL1       -0.2659
     23 H           9.4392   39.3510    8.0179 H       1  UNL1        0.1566
     24 C           8.8779   39.7825    4.9535 C.ar    1  UNL1        0.1430
     25 C          10.1491   39.9842    5.5455 C.ar    1  UNL1        0.0876
     26 C          11.2805   39.4157    4.9384 C.ar    1  UNL1        0.0076
     27 C          11.1656   38.6602    3.7698 C.ar    1  UNL1        0.0003
     28 C           9.9138   38.4613    3.1891 C.ar    1  UNL1        0.0031
     29 C           8.7779   39.0182    3.7770 C.ar    1  UNL1        0.0371
     30 C           6.7612   39.5670    6.2275 C.3     1  UNL1        0.2525
     31 O           7.7313   40.3404    5.5330 O.3     1  UNL1       -0.4713
@<TRIPOS>BOND
     1    30    31    1
     2    24    31    1
     3    25    26   ar
     4    25    20    1
     5    27    28   ar
     6    29    24   ar
     7    20    22   am
     8     2     3   ar
     9     6     5    1
    10     6     7    1
    11     7     8    1
    12     8    11    1
    13    12    11    1
    14    12    13    1
    15    13    14    1
    16    14    15    1
    17    15    16    1
    18    16    17    1
    19    17    18    1
    20    18    19    1
    21    19    15    1
    22     9    11    1
    23     9    10    1
    24    10     6    1
    25    22     1    1
    26     5     4   ar
    27     5     1   ar
    28    24    25   ar
    29    26    27   ar
    30    28    29   ar
    31    20    21    2
    32     1     2   ar
    33     3     4   ar
    34    22    23    1
