@<TRIPOS>MOLECULE
MolPort-007-723-454 CHEMBL1438645 ChemDiv-E157-5493 MCULE-7289933255 PubChem-22518014
 29 31 0 0 0
SMALL
GASTEIGER

@<TRIPOS>ATOM
      1 C          11.5962   42.0775    8.7574 C.ar    1  UNL1        0.1894
      2 C           9.3000   42.6997    8.9528 C.ar    1  UNL1        0.2593
      3 N          11.4054   43.1448    9.5644 N.ar    1  UNL1       -0.1239
      4 N          10.1245   43.4922    9.6716 N.ar    1  UNL1       -0.1187
      5 S          10.1471   41.5031    8.1243 S.2     1  UNL1       -0.0102
      6 C          13.6180   40.6634    9.3511 C.2     1  UNL1        0.2678
      7 O          13.1647   40.3564   10.4872 O.2     1  UNL1       -0.2708
      8 N          12.8745   41.5058    8.4653 N.am    1  UNL1       -0.2598
      9 H          13.2730   41.7073    7.5880 H       1  UNL1        0.1569
     10 C          15.2603   38.8195    9.5552 C.3     1  UNL1        0.0574
     11 C          14.9552   40.1627    8.9200 C.3     1  UNL1        0.2415
     12 O          15.9646   41.1031    9.2661 O.3     1  UNL1       -0.4699
     13 C          16.3420   42.1500    8.4201 C.ar    1  UNL1        0.1391
     14 C          17.5042   42.8717    8.7121 C.ar    1  UNL1        0.0369
     15 C          17.9074   43.9246    7.8852 C.ar    1  UNL1        0.0031
     16 C          17.1484   44.2617    6.7608 C.ar    1  UNL1        0.0002
     17 C          15.9856   43.5465    6.4630 C.ar    1  UNL1        0.0031
     18 C          15.5823   42.4935    7.2892 C.ar    1  UNL1        0.0369
     19 O           7.0305   42.3240    7.5993 O.2     1  UNL1       -0.1477
     20 O           7.2637   44.3968    8.8755 O.2     1  UNL1       -0.1477
     21 S           7.5649   42.9240    8.8695 S.O2    1  UNL1        0.1010
     22 C           7.6711   41.6273   11.2832 C.3     1  UNL1        0.1392
     23 N           6.8098   42.1517   10.2321 N.pl3   1  UNL1       -0.1870
     24 C           5.3775   42.0084   10.3206 C.ar    1  UNL1        0.0689
     25 C           4.7841   41.4626   11.4719 C.ar    1  UNL1        0.0161
     26 C           3.3963   41.3204   11.5596 C.ar    1  UNL1        0.0013
     27 C           2.5845   41.7231   10.4969 C.ar    1  UNL1        0.0001
     28 C           3.1600   42.2681    9.3471 C.ar    1  UNL1        0.0013
     29 C           4.5477   42.4099    9.2604 C.ar    1  UNL1        0.0161
@<TRIPOS>BOND
     1    11    10    1
     2    11    12    1
     3    11     6    1
     4    13    12    1
     5    14    15   ar
     6    16    17   ar
     7    18    13   ar
     8     6     8   am
     9     1     5   ar
    10     2     5   ar
    11    22    23    1
    12    25    26   ar
    13    27    28   ar
    14    29    24   ar
    15     8     1    1
    16     3     4   ar
    17    23    24    1
    18    21     2    1
    19    21    23    1
    20    13    14   ar
    21    15    16   ar
    22    17    18   ar
    23     6     7    2
    24     1     3   ar
    25     2     4   ar
    26    24    25   ar
    27    26    27   ar
    28    28    29   ar
    29    21    19    2
    30    21    20    2
    31     8     9    1
@<TRIPOS>MOLECULE
MolPort-007-723-454 CHEMBL1438645 ChemDiv-E157-5493 MCULE-7289933255 PubChem-22518014
 29 31 0 0 0
SMALL
GASTEIGER

@<TRIPOS>ATOM
      1 C          10.6920   42.3317    9.8431 C.ar    1  UNL1        0.1894
      2 C           8.6116   43.1245    8.9819 C.ar    1  UNL1        0.2593
      3 N          10.4198   43.6040   10.2091 N.ar    1  UNL1       -0.1239
      4 N           9.2599   44.0460    9.7270 N.ar    1  UNL1       -0.1187
      5 S           9.4750   41.6822    8.8800 S.2     1  UNL1       -0.0102
      6 C          12.7700   40.9778    9.3058 C.2     1  UNL1        0.2678
      7 O          12.5624   41.0106    8.0623 O.2     1  UNL1       -0.2708
      8 N          11.8749   41.6203   10.2184 N.am    1  UNL1       -0.2598
      9 H          12.0894   41.5690   11.1779 H       1  UNL1        0.1569
     10 C          15.1858   40.5157    9.0065 C.3     1  UNL1        0.0574
     11 C          13.9520   40.2465    9.8468 C.3     1  UNL1        0.2415
     12 O          13.6872   38.8495    9.8857 O.3     1  UNL1       -0.4699
     13 C          14.6294   37.8922    9.4985 C.ar    1  UNL1        0.1391
     14 C          15.8749   37.8712   10.1350 C.ar    1  UNL1        0.0369
     15 C          16.8383   36.9262    9.7694 C.ar    1  UNL1        0.0031
     16 C          16.5603   35.9964    8.7633 C.ar    1  UNL1        0.0002
     17 C          15.3189   36.0115    8.1219 C.ar    1  UNL1        0.0031
     18 C          14.3554   36.9560    8.4874 C.ar    1  UNL1        0.0369
     19 O           7.3037   43.7643    6.7450 O.2     1  UNL1       -0.1477
     20 O           6.3961   44.5772    8.8652 O.2     1  UNL1       -0.1477
     21 S           7.0773   43.4194    8.1903 S.O2    1  UNL1        0.1010
     22 C           6.1844   41.0148    7.2211 C.3     1  UNL1        0.1392
     23 N           6.0839   41.9961    8.2928 N.pl3   1  UNL1       -0.1870
     24 C           5.1681   41.7919    9.3882 C.ar    1  UNL1        0.0689
     25 C           3.8297   42.2092    9.2874 C.ar    1  UNL1        0.0161
     26 C           2.9405   42.0146   10.3481 C.ar    1  UNL1        0.0013
     27 C           3.3787   41.3995   11.5230 C.ar    1  UNL1        0.0001
     28 C           4.7055   40.9788   11.6369 C.ar    1  UNL1        0.0013
     29 C           5.5938   41.1737   10.5758 C.ar    1  UNL1        0.0161
@<TRIPOS>BOND
     1    11    10    1
     2    11    12    1
     3    11     6    1
     4    13    12    1
     5    14    15   ar
     6    16    17   ar
     7    18    13   ar
     8     6     8   am
     9     1     5   ar
    10     2     5   ar
    11    22    23    1
    12    25    26   ar
    13    27    28   ar
    14    29    24   ar
    15     8     1    1
    16     3     4   ar
    17    23    24    1
    18    21     2    1
    19    21    23    1
    20    13    14   ar
    21    15    16   ar
    22    17    18   ar
    23     6     7    2
    24     1     3   ar
    25     2     4   ar
    26    24    25   ar
    27    26    27   ar
    28    28    29   ar
    29    21    19    2
    30    21    20    2
    31     8     9    1
@<TRIPOS>MOLECULE
MolPort-007-723-454 CHEMBL1438645 ChemDiv-E157-5493 MCULE-7289933255 PubChem-22518014
 29 31 0 0 0
SMALL
GASTEIGER

@<TRIPOS>ATOM
      1 C           7.5414   42.3355    6.9360 C.ar    1  UNL1        0.1894
      2 C           9.8716   41.8320    7.0577 C.ar    1  UNL1        0.2593
      3 N           8.0717   41.9983    5.7393 N.ar    1  UNL1       -0.1239
      4 N           9.3718   41.7191    5.8078 N.ar    1  UNL1       -0.1187
      5 S           8.6915   42.3020    8.1634 S.2     1  UNL1       -0.0102
      6 C           5.7176   43.8530    7.8364 C.2     1  UNL1        0.2678
      7 O           6.5385   44.6761    8.3254 O.2     1  UNL1       -0.2708
      8 N           6.1702   42.6883    7.1395 N.am    1  UNL1       -0.2598
      9 H           5.4857   42.0836    6.7721 H       1  UNL1        0.1569
     10 C           3.8661   45.4756    7.5563 C.3     1  UNL1        0.0574
     11 C           4.2515   44.0759    7.9957 C.3     1  UNL1        0.2415
     12 O           3.8698   43.8708    9.3505 O.3     1  UNL1       -0.4699
     13 C           3.9325   42.6196    9.9706 C.ar    1  UNL1        0.1391
     14 C           4.9979   42.3440   10.8343 C.ar    1  UNL1        0.0369
     15 C           5.0885   41.1014   11.4689 C.ar    1  UNL1        0.0031
     16 C           4.1126   40.1267   11.2419 C.ar    1  UNL1        0.0002
     17 C           3.0459   40.3939   10.3797 C.ar    1  UNL1        0.0031
     18 C           2.9548   41.6361    9.7453 C.ar    1  UNL1        0.0369
     19 O          12.0623   42.6743    8.3284 O.2     1  UNL1       -0.1477
     20 O          12.3588   41.5245    6.1907 O.2     1  UNL1       -0.1477
     21 S          11.5540   41.5578    7.4601 S.O2    1  UNL1        0.1010
     22 C          10.7050   39.0247    8.0776 C.3     1  UNL1        0.1392
     23 N          11.7131   40.0499    8.3110 N.pl3   1  UNL1       -0.1870
     24 C          12.7924   39.8167    9.2388 C.ar    1  UNL1        0.0689
     25 C          14.1285   39.8548    8.8042 C.ar    1  UNL1        0.0161
     26 C          15.1765   39.6271    9.7006 C.ar    1  UNL1        0.0013
     27 C          14.9012   39.3590   11.0434 C.ar    1  UNL1        0.0001
     28 C          13.5785   39.3191   11.4897 C.ar    1  UNL1        0.0013
     29 C          12.5313   39.5470   10.5926 C.ar    1  UNL1        0.0161
@<TRIPOS>BOND
     1    11    10    1
     2    11    12    1
     3    11     6    1
     4    13    12    1
     5    14    15   ar
     6    16    17   ar
     7    18    13   ar
     8     6     8   am
     9     1     5   ar
    10     2     5   ar
    11    22    23    1
    12    25    26   ar
    13    27    28   ar
    14    29    24   ar
    15     8     1    1
    16     3     4   ar
    17    23    24    1
    18    21     2    1
    19    21    23    1
    20    13    14   ar
    21    15    16   ar
    22    17    18   ar
    23     6     7    2
    24     1     3   ar
    25     2     4   ar
    26    24    25   ar
    27    26    27   ar
    28    28    29   ar
    29    21    19    2
    30    21    20    2
    31     8     9    1
@<TRIPOS>MOLECULE
MolPort-007-723-454 CHEMBL1438645 ChemDiv-E157-5493 MCULE-7289933255 PubChem-22518014
 29 31 0 0 0
SMALL
GASTEIGER

@<TRIPOS>ATOM
      1 C          10.9601   39.4334   10.1890 C.ar    1  UNL1        0.1894
      2 C          13.0156   38.3586   10.7524 C.ar    1  UNL1        0.2593
      3 N          11.0565   38.1822    9.6867 N.ar    1  UNL1       -0.1239
      4 N          12.2039   37.5840   10.0002 N.ar    1  UNL1       -0.1187
      5 S          12.3296   39.8642   11.0661 S.2     1  UNL1       -0.0102
      6 C           9.6327   41.1339    8.8525 C.2     1  UNL1        0.2678
      7 O          10.4665   41.1544    7.9065 O.2     1  UNL1       -0.2708
      8 N           9.8357   40.2959    9.9942 N.am    1  UNL1       -0.2598
      9 H           9.1491   40.3143   10.6996 H       1  UNL1        0.1569
     10 C           8.7662   43.4314    9.1835 C.3     1  UNL1        0.0574
     11 C           8.4227   42.0045    8.8007 C.3     1  UNL1        0.2415
     12 O           7.4178   41.4977    9.6705 O.3     1  UNL1       -0.4699
     13 C           6.0684   41.8398    9.5442 C.ar    1  UNL1        0.1391
     14 C           5.7332   43.0925    9.0197 C.ar    1  UNL1        0.0369
     15 C           4.3923   43.4638    8.8815 C.ar    1  UNL1        0.0031
     16 C           3.3786   42.5826    9.2684 C.ar    1  UNL1        0.0002
     17 C           3.7052   41.3299    9.7943 C.ar    1  UNL1        0.0031
     18 C           5.0455   40.9582    9.9323 C.ar    1  UNL1        0.0369
     19 O          14.5827   36.4068   11.6790 O.2     1  UNL1       -0.1477
     20 O          14.9826   38.6742   12.5028 O.2     1  UNL1       -0.1477
     21 S          14.6040   37.8603   11.2969 S.O2    1  UNL1        0.1010
     22 C          16.2583   39.4535    9.7991 C.3     1  UNL1        0.1392
     23 N          15.7613   38.1026   10.0221 N.pl3   1  UNL1       -0.1870
     24 C          16.2068   37.0125    9.1895 C.ar    1  UNL1        0.0689
     25 C          15.3462   36.4463    8.2333 C.ar    1  UNL1        0.0161
     26 C          15.7744   35.3882    7.4265 C.ar    1  UNL1        0.0013
     27 C          17.0693   34.8836    7.5656 C.ar    1  UNL1        0.0001
     28 C          17.9357   35.4370    8.5107 C.ar    1  UNL1        0.0013
     29 C          17.5067   36.4949    9.3169 C.ar    1  UNL1        0.0161
@<TRIPOS>BOND
     1    11    10    1
     2    11    12    1
     3    11     6    1
     4    13    12    1
     5    14    15   ar
     6    16    17   ar
     7    18    13   ar
     8     6     8   am
     9     1     5   ar
    10     2     5   ar
    11    22    23    1
    12    25    26   ar
    13    27    28   ar
    14    29    24   ar
    15     8     1    1
    16     3     4   ar
    17    23    24    1
    18    21     2    1
    19    21    23    1
    20    13    14   ar
    21    15    16   ar
    22    17    18   ar
    23     6     7    2
    24     1     3   ar
    25     2     4   ar
    26    24    25   ar
    27    26    27   ar
    28    28    29   ar
    29    21    19    2
    30    21    20    2
    31     8     9    1
@<TRIPOS>MOLECULE
MolPort-007-723-454 CHEMBL1438645 ChemDiv-E157-5493 MCULE-7289933255 PubChem-22518014
 29 31 0 0 0
SMALL
GASTEIGER

@<TRIPOS>ATOM
      1 C          12.0611   41.5483    8.5088 C.ar    1  UNL1        0.1894
      2 C           9.7097   41.9312    8.3590 C.ar    1  UNL1        0.2593
      3 N          11.6221   42.4836    9.3801 N.ar    1  UNL1       -0.1239
      4 N          10.3107   42.6977    9.2949 N.ar    1  UNL1       -0.1187
      5 S          10.8098   40.9300    7.5693 S.2     1  UNL1       -0.0102
      6 C          14.1876   40.5101    9.4251 C.2     1  UNL1        0.2678
      7 O          13.6747   40.2683   10.5515 O.2     1  UNL1       -0.2708
      8 N          13.4254   41.1357    8.3884 N.am    1  UNL1       -0.2598
      9 H          13.8741   41.2943    7.5266 H       1  UNL1        0.1569
     10 C          16.0557   39.0013   10.0360 C.3     1  UNL1        0.0574
     11 C          15.6137   40.1604    9.1631 C.3     1  UNL1        0.2415
     12 O          16.4457   41.2897    9.3989 O.3     1  UNL1       -0.4699
     13 C          16.6665   42.2781    8.4355 C.ar    1  UNL1        0.1391
     14 C          15.6826   42.5148    7.4697 C.ar    1  UNL1        0.0369
     15 C          15.8746   43.4964    6.4926 C.ar    1  UNL1        0.0031
     16 C          17.0539   44.2467    6.4764 C.ar    1  UNL1        0.0002
     17 C          18.0421   44.0155    7.4370 C.ar    1  UNL1        0.0031
     18 C          17.8503   43.0346    8.4142 C.ar    1  UNL1        0.0369
     19 O           7.2932   40.8221    8.5917 O.2     1  UNL1       -0.1477
     20 O           7.8180   41.9767    6.5010 O.2     1  UNL1       -0.1477
     21 S           7.9985   42.0067    7.9932 S.O2    1  UNL1        0.1010
     22 C           8.2213   44.3811    9.3464 C.3     1  UNL1        0.1392
     23 N           7.3246   43.4689    8.6497 N.pl3   1  UNL1       -0.1870
     24 C           5.9190   43.7706    8.5344 C.ar    1  UNL1        0.0689
     25 C           5.4768   44.8004    7.6861 C.ar    1  UNL1        0.0161
     26 C           4.1154   45.0965    7.5739 C.ar    1  UNL1        0.0013
     27 C           3.1789   44.3658    8.3086 C.ar    1  UNL1        0.0001
     28 C           3.6036   43.3391    9.1546 C.ar    1  UNL1        0.0013
     29 C           4.9650   43.0437    9.2660 C.ar    1  UNL1        0.0161
@<TRIPOS>BOND
     1    11    10    1
     2    11    12    1
     3    11     6    1
     4    13    12    1
     5    14    15   ar
     6    16    17   ar
     7    18    13   ar
     8     6     8   am
     9     1     5   ar
    10     2     5   ar
    11    22    23    1
    12    25    26   ar
    13    27    28   ar
    14    29    24   ar
    15     8     1    1
    16     3     4   ar
    17    23    24    1
    18    21     2    1
    19    21    23    1
    20    13    14   ar
    21    15    16   ar
    22    17    18   ar
    23     6     7    2
    24     1     3   ar
    25     2     4   ar
    26    24    25   ar
    27    26    27   ar
    28    28    29   ar
    29    21    19    2
    30    21    20    2
    31     8     9    1
@<TRIPOS>MOLECULE
MolPort-007-723-454 CHEMBL1438645 ChemDiv-E157-5493 MCULE-7289933255 PubChem-22518014
 29 31 0 0 0
SMALL
GASTEIGER

@<TRIPOS>ATOM
      1 C           7.3814   41.7607    6.7963 C.ar    1  UNL1        0.1894
      2 C           9.6584   41.0787    6.5780 C.ar    1  UNL1        0.2593
      3 N           7.6688   41.2649    5.5722 N.ar    1  UNL1       -0.1239
      4 N           8.9394   40.8861    5.4508 N.ar    1  UNL1       -0.1187
      5 S           8.7256   41.7516    7.8080 S.2     1  UNL1       -0.0102
      6 C           5.8166   43.5797    7.6225 C.2     1  UNL1        0.2678
      7 O           6.7311   44.4463    7.6793 O.2     1  UNL1       -0.2708
      8 N           6.0937   42.2450    7.1881 N.am    1  UNL1       -0.2598
      9 H           5.3407   41.6116    7.1563 H       1  UNL1        0.1569
     10 C           4.0692   45.3356    7.5726 C.3     1  UNL1        0.0574
     11 C           4.4257   43.9336    8.0287 C.3     1  UNL1        0.2415
     12 O           4.2880   43.8334    9.4408 O.3     1  UNL1       -0.4699
     13 C           4.2138   42.6063   10.1061 C.ar    1  UNL1        0.1391
     14 C           3.0063   41.9000   10.0923 C.ar    1  UNL1        0.0369
     15 C           2.9006   40.6703   10.7491 C.ar    1  UNL1        0.0031
     16 C           4.0038   40.1404   11.4245 C.ar    1  UNL1        0.0002
     17 C           5.2131   40.8403   11.4440 C.ar    1  UNL1        0.0031
     18 C           5.3193   42.0695   10.7872 C.ar    1  UNL1        0.0369
     19 O          12.0163   40.7699    5.3660 O.2     1  UNL1       -0.1477
     20 O          11.5142   39.3131    7.2648 O.2     1  UNL1       -0.1477
     21 S          11.3640   40.7057    6.7185 S.O2    1  UNL1        0.1010
     22 C          11.3542   42.3608    8.9046 C.3     1  UNL1        0.1392
     23 N          12.1273   41.8520    7.7799 N.pl3   1  UNL1       -0.1870
     24 C          13.4758   42.3100    7.5523 C.ar    1  UNL1        0.0689
     25 C          13.7209   43.4393    6.7523 C.ar    1  UNL1        0.0161
     26 C          15.0269   43.8843    6.5281 C.ar    1  UNL1        0.0013
     27 C          16.1042   43.2054    7.1019 C.ar    1  UNL1        0.0001
     28 C          15.8757   42.0824    7.8999 C.ar    1  UNL1        0.0013
     29 C          14.5695   41.6383    8.1235 C.ar    1  UNL1        0.0161
@<TRIPOS>BOND
     1    11    10    1
     2    11    12    1
     3    11     6    1
     4    13    12    1
     5    14    15   ar
     6    16    17   ar
     7    18    13   ar
     8     6     8   am
     9     1     5   ar
    10     2     5   ar
    11    22    23    1
    12    25    26   ar
    13    27    28   ar
    14    29    24   ar
    15     8     1    1
    16     3     4   ar
    17    23    24    1
    18    21     2    1
    19    21    23    1
    20    13    14   ar
    21    15    16   ar
    22    17    18   ar
    23     6     7    2
    24     1     3   ar
    25     2     4   ar
    26    24    25   ar
    27    26    27   ar
    28    28    29   ar
    29    21    19    2
    30    21    20    2
    31     8     9    1
@<TRIPOS>MOLECULE
MolPort-007-723-454 CHEMBL1438645 ChemDiv-E157-5493 MCULE-7289933255 PubChem-22518014
 29 31 0 0 0
SMALL
GASTEIGER

@<TRIPOS>ATOM
      1 C          11.1205   39.8402    9.5164 C.ar    1  UNL1        0.1894
      2 C          13.2913   38.8486    9.4674 C.ar    1  UNL1        0.2593
      3 N          11.4453   39.3405    8.3032 N.ar    1  UNL1       -0.1239
      4 N          12.6569   38.7890    8.2764 N.ar    1  UNL1       -0.1187
      5 S          12.3540   39.6148   10.6381 S.2     1  UNL1       -0.0102
      6 C           9.7299   41.8942   10.0522 C.2     1  UNL1        0.2678
      7 O          10.7211   42.6722   10.0011 O.2     1  UNL1       -0.2708
      8 N           9.8825   40.4915    9.8149 N.am    1  UNL1       -0.2598
      9 H           9.0737   39.9320    9.8605 H       1  UNL1        0.1569
     10 C           7.9194   41.9407   11.7431 C.3     1  UNL1        0.0574
     11 C           8.3769   42.4286   10.3817 C.3     1  UNL1        0.2415
     12 O           7.4401   42.0360    9.3860 O.3     1  UNL1       -0.4699
     13 C           6.3983   42.8659    8.9617 C.ar    1  UNL1        0.1391
     14 C           6.6753   43.8873    8.0470 C.ar    1  UNL1        0.0369
     15 C           5.6546   44.7340    7.6042 C.ar    1  UNL1        0.0031
     16 C           4.3497   44.5632    8.0755 C.ar    1  UNL1        0.0002
     17 C           4.0650   43.5459    8.9902 C.ar    1  UNL1        0.0031
     18 C           5.0851   42.6991    9.4329 C.ar    1  UNL1        0.0369
     19 O          15.3487   37.4096    8.5619 O.2     1  UNL1       -0.1477
     20 O          14.9002   37.3653   10.9653 O.2     1  UNL1       -0.1477
     21 S          14.9090   38.2345    9.7388 S.O2    1  UNL1        0.1010
     22 C          16.9813   39.4770   11.0350 C.3     1  UNL1        0.1392
     23 N          16.0101   39.5630    9.9530 N.pl3   1  UNL1       -0.1870
     24 C          15.9592   40.7298    9.1067 C.ar    1  UNL1        0.0689
     25 C          14.7970   41.0322    8.3764 C.ar    1  UNL1        0.0161
     26 C          14.7455   42.1610    7.5536 C.ar    1  UNL1        0.0013
     27 C          15.8559   43.0020    7.4515 C.ar    1  UNL1        0.0001
     28 C          17.0171   42.7147    8.1722 C.ar    1  UNL1        0.0013
     29 C          17.0676   41.5858    8.9946 C.ar    1  UNL1        0.0161
@<TRIPOS>BOND
     1    11    10    1
     2    11    12    1
     3    11     6    1
     4    13    12    1
     5    14    15   ar
     6    16    17   ar
     7    18    13   ar
     8     6     8   am
     9     1     5   ar
    10     2     5   ar
    11    22    23    1
    12    25    26   ar
    13    27    28   ar
    14    29    24   ar
    15     8     1    1
    16     3     4   ar
    17    23    24    1
    18    21     2    1
    19    21    23    1
    20    13    14   ar
    21    15    16   ar
    22    17    18   ar
    23     6     7    2
    24     1     3   ar
    25     2     4   ar
    26    24    25   ar
    27    26    27   ar
    28    28    29   ar
    29    21    19    2
    30    21    20    2
    31     8     9    1
@<TRIPOS>MOLECULE
MolPort-007-723-454 CHEMBL1438645 ChemDiv-E157-5493 MCULE-7289933255 PubChem-22518014
 29 31 0 0 0
SMALL
GASTEIGER

@<TRIPOS>ATOM
      1 C          10.0280   38.4378    7.7687 C.ar    1  UNL1        0.1894
      2 C           8.0976   39.5583    6.9228 C.ar    1  UNL1        0.2593
      3 N           9.0782   37.5872    7.3202 N.ar    1  UNL1       -0.1239
      4 N           8.0011   38.2130    6.8500 N.ar    1  UNL1       -0.1187
      5 S           9.5615   40.0452    7.5980 S.2     1  UNL1       -0.0102
      6 C          11.4281   37.2996    9.5532 C.2     1  UNL1        0.2678
      7 O          10.4218   36.9563   10.2315 O.2     1  UNL1       -0.2708
      8 N          11.2778   38.0271    8.3304 N.am    1  UNL1       -0.2598
      9 H          12.0971   38.2630    7.8380 H       1  UNL1        0.1569
     10 C          12.7491   35.9462   11.1539 C.3     1  UNL1        0.0574
     11 C          12.8007   36.9645   10.0309 C.3     1  UNL1        0.2415
     12 O          13.4655   38.1414   10.4738 O.3     1  UNL1       -0.4699
     13 C          13.2929   39.3831    9.8555 C.ar    1  UNL1        0.1391
     14 C          12.3142   40.2540   10.3458 C.ar    1  UNL1        0.0369
     15 C          12.1173   41.5026    9.7483 C.ar    1  UNL1        0.0031
     16 C          12.8994   41.8866    8.6551 C.ar    1  UNL1        0.0002
     17 C          13.8783   41.0218    8.1586 C.ar    1  UNL1        0.0031
     18 C          14.0756   39.7736    8.7560 C.ar    1  UNL1        0.0369
     19 O           5.5581   39.8887    6.1708 O.2     1  UNL1       -0.1477
     20 O           7.2482   41.3137    5.1256 O.2     1  UNL1       -0.1477
     21 S           6.8301   40.6528    6.4096 S.O2    1  UNL1        0.1010
     22 C           6.9516   43.2239    7.3546 C.3     1  UNL1        0.1392
     23 N           6.5587   41.8507    7.6402 N.pl3   1  UNL1       -0.1870
     24 C           5.9839   41.5047    8.9170 C.ar    1  UNL1        0.0689
     25 C           6.7486   41.5963   10.0927 C.ar    1  UNL1        0.0161
     26 C           6.1949   41.2595   11.3313 C.ar    1  UNL1        0.0013
     27 C           4.8690   40.8275   11.4093 C.ar    1  UNL1        0.0001
     28 C           4.0970   40.7328   10.2495 C.ar    1  UNL1        0.0013
     29 C           4.6514   41.0697    9.0116 C.ar    1  UNL1        0.0161
@<TRIPOS>BOND
     1    11    10    1
     2    11    12    1
     3    11     6    1
     4    13    12    1
     5    14    15   ar
     6    16    17   ar
     7    18    13   ar
     8     6     8   am
     9     1     5   ar
    10     2     5   ar
    11    22    23    1
    12    25    26   ar
    13    27    28   ar
    14    29    24   ar
    15     8     1    1
    16     3     4   ar
    17    23    24    1
    18    21     2    1
    19    21    23    1
    20    13    14   ar
    21    15    16   ar
    22    17    18   ar
    23     6     7    2
    24     1     3   ar
    25     2     4   ar
    26    24    25   ar
    27    26    27   ar
    28    28    29   ar
    29    21    19    2
    30    21    20    2
    31     8     9    1
@<TRIPOS>MOLECULE
MolPort-007-723-454 CHEMBL1438645 ChemDiv-E157-5493 MCULE-7289933255 PubChem-22518014
 29 31 0 0 0
SMALL
GASTEIGER

@<TRIPOS>ATOM
      1 C          12.1239   40.8251    9.6445 C.ar    1  UNL1        0.1894
      2 C           9.9511   41.6631   10.1686 C.ar    1  UNL1        0.2593
      3 N          11.3682   39.9397   10.3315 N.ar    1  UNL1       -0.1239
      4 N          10.1570   40.4085   10.6248 N.ar    1  UNL1       -0.1187
      5 S          11.3020   42.2660    9.3638 S.2     1  UNL1       -0.0102
      6 C          14.4992   40.0192   10.0292 C.2     1  UNL1        0.2678
      7 O          14.2755   39.6928   11.2267 O.2     1  UNL1       -0.2708
      8 N          13.4648   40.5765    9.2129 N.am    1  UNL1       -0.2598
      9 H          13.6933   40.8066    8.2834 H       1  UNL1        0.1569
     10 C          16.5994   38.7087   10.1341 C.3     1  UNL1        0.0574
     11 C          15.8621   39.8436    9.4492 C.3     1  UNL1        0.2415
     12 O          16.6057   41.0498    9.5735 O.3     1  UNL1       -0.4699
     13 C          16.6494   42.0162    8.5645 C.ar    1  UNL1        0.1391
     14 C          15.5199   42.2097    7.7623 C.ar    1  UNL1        0.0369
     15 C          15.5331   43.1684    6.7446 C.ar    1  UNL1        0.0031
     16 C          16.6782   43.9391    6.5238 C.ar    1  UNL1        0.0002
     17 C          17.8109   43.7510    7.3201 C.ar    1  UNL1        0.0031
     18 C          17.7980   42.7930    8.3378 C.ar    1  UNL1        0.0369
     19 O           8.7751   44.0184   10.6086 O.2     1  UNL1       -0.1477
     20 O           7.7950   42.0429   11.6652 O.2     1  UNL1       -0.1477
     21 S           8.4677   42.5588   10.4237 S.O2    1  UNL1        0.1010
     22 C           8.0372   42.2610    7.7321 C.3     1  UNL1        0.1392
     23 N           7.4221   42.3613    9.0486 N.pl3   1  UNL1       -0.1870
     24 C           5.9875   42.3190    9.1909 C.ar    1  UNL1        0.0689
     25 C           5.3413   41.1265    9.5597 C.ar    1  UNL1        0.0161
     26 C           3.9509   41.0819    9.6963 C.ar    1  UNL1        0.0013
     27 C           3.1894   42.2299    9.4663 C.ar    1  UNL1        0.0001
     28 C           3.8179   43.4221    9.1003 C.ar    1  UNL1        0.0013
     29 C           5.2082   43.4657    8.9641 C.ar    1  UNL1        0.0161
@<TRIPOS>BOND
     1    11    10    1
     2    11    12    1
     3    11     6    1
     4    13    12    1
     5    14    15   ar
     6    16    17   ar
     7    18    13   ar
     8     6     8   am
     9     1     5   ar
    10     2     5   ar
    11    22    23    1
    12    25    26   ar
    13    27    28   ar
    14    29    24   ar
    15     8     1    1
    16     3     4   ar
    17    23    24    1
    18    21     2    1
    19    21    23    1
    20    13    14   ar
    21    15    16   ar
    22    17    18   ar
    23     6     7    2
    24     1     3   ar
    25     2     4   ar
    26    24    25   ar
    27    26    27   ar
    28    28    29   ar
    29    21    19    2
    30    21    20    2
    31     8     9    1
@<TRIPOS>MOLECULE
MolPort-007-723-454 CHEMBL1438645 ChemDiv-E157-5493 MCULE-7289933255 PubChem-22518014
 29 31 0 0 0
SMALL
GASTEIGER

@<TRIPOS>ATOM
      1 C           7.2414   42.0609    6.7743 C.ar    1  UNL1        0.1894
      2 C           9.3858   41.0174    6.6725 C.ar    1  UNL1        0.2593
      3 N           8.0316   42.5722    5.8043 N.ar    1  UNL1       -0.1239
      4 N           9.2281   41.9907    5.7493 N.ar    1  UNL1       -0.1187
      5 S           8.0120   40.8336    7.6290 S.2     1  UNL1       -0.0102
      6 C           5.5797   43.6095    7.9058 C.2     1  UNL1        0.2678
      7 O           6.4801   44.2793    8.4814 O.2     1  UNL1       -0.2708
      8 N           5.9122   42.5107    7.0520 N.am    1  UNL1       -0.2598
      9 H           5.1696   42.0274    6.6228 H       1  UNL1        0.1569
     10 C           3.8275   45.3351    7.6034 C.3     1  UNL1        0.0574
     11 C           4.1431   43.9460    8.1246 C.3     1  UNL1        0.2415
     12 O           3.8268   43.8641    9.5089 O.3     1  UNL1       -0.4699
     13 C           3.7303   42.6471   10.1897 C.ar    1  UNL1        0.1391
     14 C           3.1940   42.6341   11.4816 C.ar    1  UNL1        0.0369
     15 C           3.0850   41.4326   12.1884 C.ar    1  UNL1        0.0031
     16 C           3.5132   40.2364   11.6055 C.ar    1  UNL1        0.0002
     17 C           4.0512   40.2411   10.3159 C.ar    1  UNL1        0.0031
     18 C           4.1600   41.4420    9.6089 C.ar    1  UNL1        0.0369
     19 O          11.6585   40.1253    5.5941 O.2     1  UNL1       -0.1477
     20 O          10.5016   38.6654    7.1784 O.2     1  UNL1       -0.1477
     21 S          10.8600   40.0919    6.8670 S.O2    1  UNL1        0.1010
     22 C          13.2587   40.7364    8.0288 C.3     1  UNL1        0.1392
     23 N          11.8082   40.7677    8.1583 N.pl3   1  UNL1       -0.1870
     24 C          11.1908   41.3248    9.3367 C.ar    1  UNL1        0.0689
     25 C          10.9854   42.7108    9.4478 C.ar    1  UNL1        0.0161
     26 C          10.3893   43.2539   10.5895 C.ar    1  UNL1        0.0013
     27 C           9.9905   42.4172   11.6343 C.ar    1  UNL1        0.0001
     28 C          10.1872   41.0380   11.5373 C.ar    1  UNL1        0.0013
     29 C          10.7833   40.4960   10.3953 C.ar    1  UNL1        0.0161
@<TRIPOS>BOND
     1    11    10    1
     2    11    12    1
     3    11     6    1
     4    13    12    1
     5    14    15   ar
     6    16    17   ar
     7    18    13   ar
     8     6     8   am
     9     1     5   ar
    10     2     5   ar
    11    22    23    1
    12    25    26   ar
    13    27    28   ar
    14    29    24   ar
    15     8     1    1
    16     3     4   ar
    17    23    24    1
    18    21     2    1
    19    21    23    1
    20    13    14   ar
    21    15    16   ar
    22    17    18   ar
    23     6     7    2
    24     1     3   ar
    25     2     4   ar
    26    24    25   ar
    27    26    27   ar
    28    28    29   ar
    29    21    19    2
    30    21    20    2
    31     8     9    1
