@<TRIPOS>MOLECULE
MolPort-047-073-941 MCULE-8308762370 PubChem-132767230
 34 37 0 0 0
SMALL
GASTEIGER

@<TRIPOS>ATOM
      1 N          12.7774   41.9069    6.6638 N.pl3   1  UNL1       -0.2781
      2 H          12.6572   41.7971    5.6929 H       1  UNL1        0.1555
      3 C          14.1042   42.1611    7.1395 C.ar    1  UNL1        0.1361
      4 C          14.6769   41.2827    8.0566 C.ar    1  UNL1        0.0492
      5 C          15.9748   41.5328    8.5029 C.ar    1  UNL1        0.0641
      6 C          16.0872   43.4543    7.1329 C.ar    1  UNL1        0.1406
      7 C          16.8506   44.6220    6.6264 C.3     1  UNL1        0.0737
      8 N          16.6583   42.6085    8.0286 N.ar    1  UNL1       -0.2349
      9 N          14.8212   43.2274    6.6932 N.ar    1  UNL1       -0.2159
     10 C          16.6149   40.5792    9.4567 C.3     1  UNL1        0.0564
     11 C          18.0646   40.2729    9.0733 C.3     1  UNL1        0.0087
     12 C          18.6949   39.2945   10.0718 C.3     1  UNL1        0.0178
     13 C          17.6730   38.3101   10.6522 C.3     1  UNL1        0.0731
     14 C          15.7666   39.3028    9.6074 C.3     1  UNL1        0.0789
     15 N          16.5833   38.0832    9.7032 N.3     1  UNL1       -0.2596
     16 C          15.7312   37.0529   10.2740 C.3     1  UNL1        0.1795
     17 C          14.8674   37.6419   11.3017 C.1     1  UNL1        0.0912
     18 N          14.1892   38.1031   12.1235 N.1     1  UNL1       -0.1944
     19 C           9.4433   41.7912    8.0476 C.ar    1  UNL1        0.1429
     20 C           9.9817   41.6026    9.3256 C.ar    1  UNL1        0.0619
     21 C          11.6130   41.8000    7.4880 C.ar    1  UNL1        0.1648
     22 S          11.6587   41.5793    9.1468 S.2     1  UNL1       -0.0507
     23 N          10.3464   41.9028    7.0348 N.ar    1  UNL1       -0.2193
     24 C           7.9984   41.8900    7.8007 C.2     1  UNL1        0.2644
     25 N           7.1182   40.9012    8.3437 N.am    1  UNL1       -0.2956
     26 O           7.5387   42.8386    7.1081 O.2     1  UNL1       -0.2685
     27 H           7.4881   40.2251    8.9563 H       1  UNL1        0.1501
     28 C           5.6975   40.8540    8.0272 C.3     1  UNL1        0.1166
     29 C           4.8920   41.2395    9.2229 C.ar    1  UNL1       -0.0026
     30 C           3.5163   41.4712    9.0991 C.ar    1  UNL1       -0.0026
     31 C           2.7582   41.8093   10.2264 C.ar    1  UNL1       -0.0003
     32 C           3.3741   41.9122   11.4785 C.ar    1  UNL1       -0.0000
     33 C           4.7476   41.6763   11.6044 C.ar    1  UNL1       -0.0003
     34 C           5.5061   41.3383   10.4778 C.ar    1  UNL1       -0.0026
@<TRIPOS>BOND
     1    19    24    1
     2    19    23   ar
     3    20    22   ar
     4    21    22   ar
     5    21     1    1
     6     3     9   ar
     7     4     5   ar
     8    10     5    1
     9    10    11    1
    10    11    12    1
    11    12    13    1
    12    13    15    1
    13    16    15    1
    14    16    17    1
    15    14    15    1
    16    14    10    1
    17     6     8   ar
    18     7     6    1
    19    24    25   am
    20    28    25    1
    21    28    29    1
    22    30    31   ar
    23    32    33   ar
    24    34    29   ar
    25     1     3    1
    26    19    20   ar
    27    21    23   ar
    28     3     4   ar
    29     5     8   ar
    30     6     9   ar
    31    24    26    2
    32    29    30   ar
    33    31    32   ar
    34    33    34   ar
    35    17    18    3
    36     1     2    1
    37    25    27    1
@<TRIPOS>MOLECULE
MolPort-047-073-941 MCULE-8308762370 PubChem-132767230
 34 37 0 0 0
SMALL
GASTEIGER

@<TRIPOS>ATOM
      1 N          13.9000   42.6705    6.7429 N.pl3   1  UNL1       -0.2781
      2 H          14.0573   43.3746    6.0731 H       1  UNL1        0.1555
      3 C          12.5701   42.1502    6.8530 C.ar    1  UNL1        0.1361
      4 C          11.8590   42.3479    8.0346 C.ar    1  UNL1        0.0492
      5 C          10.5597   41.8483    8.1257 C.ar    1  UNL1        0.0641
      6 C          10.7135   41.0157    5.9201 C.ar    1  UNL1        0.1406
      7 C          10.0932   40.3046    4.7746 C.3     1  UNL1        0.0737
      8 N          10.0084   41.1983    7.0661 N.ar    1  UNL1       -0.2349
      9 N          11.9827   41.4912    5.8182 N.ar    1  UNL1       -0.2159
     10 C           9.7724   42.0857    9.3718 C.3     1  UNL1        0.0564
     11 C          10.0945   41.0559   10.4571 C.3     1  UNL1        0.0087
     12 C           9.2738   41.3274   11.7237 C.3     1  UNL1        0.0178
     13 C           7.8997   41.9321   11.4131 C.3     1  UNL1        0.0731
     14 C           8.2656   42.1590    9.0624 C.3     1  UNL1        0.0789
     15 N           7.4398   41.5080   10.0909 N.3     1  UNL1       -0.2596
     16 C           6.0887   42.0189    9.9276 C.3     1  UNL1        0.1795
     17 C           5.2207   41.4569   10.9668 C.1     1  UNL1        0.0912
     18 N           4.5411   41.0139   11.7974 N.1     1  UNL1       -0.1944
     19 C          16.2048   41.0290    8.9874 C.ar    1  UNL1        0.1429
     20 C          17.1725   41.9985    8.7007 C.ar    1  UNL1        0.0619
     21 C          15.0178   42.2479    7.5293 C.ar    1  UNL1        0.1648
     22 S          16.4792   43.0621    7.5902 S.2     1  UNL1       -0.0507
     23 N          15.0147   41.1705    8.3414 N.ar    1  UNL1       -0.2193
     24 C          16.4337   39.9356    9.9417 C.2     1  UNL1        0.2644
     25 N          17.7170   39.3057   10.0020 N.am    1  UNL1       -0.2956
     26 O          15.5009   39.5512   10.6985 O.2     1  UNL1       -0.2685
     27 H          18.4538   39.6833    9.4692 H       1  UNL1        0.1501
     28 C          17.9780   38.1290   10.8193 C.3     1  UNL1        0.1166
     29 C          18.0826   36.9167    9.9554 C.ar    1  UNL1       -0.0026
     30 C          19.2601   36.1586    9.9469 C.ar    1  UNL1       -0.0026
     31 C          19.3476   35.0082    9.1540 C.ar    1  UNL1       -0.0003
     32 C          18.2567   34.6129    8.3720 C.ar    1  UNL1       -0.0000
     33 C          17.0779   35.3667    8.3832 C.ar    1  UNL1       -0.0003
     34 C          16.9898   36.5169    9.1757 C.ar    1  UNL1       -0.0026
@<TRIPOS>BOND
     1    19    24    1
     2    19    23   ar
     3    20    22   ar
     4    21    22   ar
     5    21     1    1
     6     3     9   ar
     7     4     5   ar
     8    10     5    1
     9    10    11    1
    10    11    12    1
    11    12    13    1
    12    13    15    1
    13    16    15    1
    14    16    17    1
    15    14    15    1
    16    14    10    1
    17     6     8   ar
    18     7     6    1
    19    24    25   am
    20    28    25    1
    21    28    29    1
    22    30    31   ar
    23    32    33   ar
    24    34    29   ar
    25     1     3    1
    26    19    20   ar
    27    21    23   ar
    28     3     4   ar
    29     5     8   ar
    30     6     9   ar
    31    24    26    2
    32    29    30   ar
    33    31    32   ar
    34    33    34   ar
    35    17    18    3
    36     1     2    1
    37    25    27    1
@<TRIPOS>MOLECULE
MolPort-047-073-941 MCULE-8308762370 PubChem-132767230
 34 37 0 0 0
SMALL
GASTEIGER

@<TRIPOS>ATOM
      1 N          13.4613   39.4606   10.8853 N.pl3   1  UNL1       -0.2781
      2 H          13.2920   39.4956   11.8545 H       1  UNL1        0.1555
      3 C          14.8058   39.6786   10.4423 C.ar    1  UNL1        0.1361
      4 C          15.0548   40.6588    9.4842 C.ar    1  UNL1        0.0492
      5 C          16.3699   40.8715    9.0701 C.ar    1  UNL1        0.0641
      6 C          17.1193   39.1882   10.5488 C.ar    1  UNL1        0.1406
      7 C          18.2339   38.3998   11.1310 C.3     1  UNL1        0.0737
      8 N          17.3780   40.1385    9.6139 N.ar    1  UNL1       -0.2349
      9 N          15.8426   38.9650   10.9581 N.ar    1  UNL1       -0.2159
     10 C          16.6561   41.9443    8.0720 C.3     1  UNL1        0.0564
     11 C          17.4077   43.1218    8.6971 C.3     1  UNL1        0.0087
     12 C          17.6893   44.2043    7.6481 C.3     1  UNL1        0.0178
     13 C          16.5958   44.2803    6.5764 C.3     1  UNL1        0.0731
     14 C          15.3656   42.3860    7.3572 C.3     1  UNL1        0.0789
     15 N          15.3126   43.8369    7.1208 N.3     1  UNL1       -0.2596
     16 C          14.3145   44.0559    6.0867 C.3     1  UNL1        0.1795
     17 C          13.2528   43.0522    6.2066 C.1     1  UNL1        0.0912
     18 N          12.4196   42.2493    6.3027 N.1     1  UNL1       -0.1944
     19 C          10.5116   39.5940    8.8054 C.ar    1  UNL1        0.1429
     20 C          10.5612   38.2043    8.6481 C.ar    1  UNL1        0.0619
     21 C          12.3449   39.1962   10.0307 C.ar    1  UNL1        0.1648
     22 S          11.9035   37.6656    9.5159 S.2     1  UNL1       -0.0507
     23 N          11.4960   40.1391    9.5719 N.ar    1  UNL1       -0.2193
     24 C           9.4561   40.4240    8.2091 C.2     1  UNL1        0.2644
     25 N           8.4059   40.9354    9.0354 N.am    1  UNL1       -0.2956
     26 O           9.4737   40.6781    6.9737 O.2     1  UNL1       -0.2685
     27 H           8.4639   40.8020   10.0091 H       1  UNL1        0.1501
     28 C           7.2548   41.6452    8.4951 C.3     1  UNL1        0.1166
     29 C           6.0555   41.4043    9.3499 C.ar    1  UNL1       -0.0026
     30 C           6.1707   41.4264   10.7455 C.ar    1  UNL1       -0.0026
     31 C           5.0398   41.2241   11.5455 C.ar    1  UNL1       -0.0003
     32 C           3.7927   41.0032   10.9509 C.ar    1  UNL1       -0.0000
     33 C           3.6753   40.9857    9.5567 C.ar    1  UNL1       -0.0003
     34 C           4.8055   41.1879    8.7563 C.ar    1  UNL1       -0.0026
@<TRIPOS>BOND
     1    19    24    1
     2    19    23   ar
     3    20    22   ar
     4    21    22   ar
     5    21     1    1
     6     3     9   ar
     7     4     5   ar
     8    10     5    1
     9    10    11    1
    10    11    12    1
    11    12    13    1
    12    13    15    1
    13    16    15    1
    14    16    17    1
    15    14    15    1
    16    14    10    1
    17     6     8   ar
    18     7     6    1
    19    24    25   am
    20    28    25    1
    21    28    29    1
    22    30    31   ar
    23    32    33   ar
    24    34    29   ar
    25     1     3    1
    26    19    20   ar
    27    21    23   ar
    28     3     4   ar
    29     5     8   ar
    30     6     9   ar
    31    24    26    2
    32    29    30   ar
    33    31    32   ar
    34    33    34   ar
    35    17    18    3
    36     1     2    1
    37    25    27    1
@<TRIPOS>MOLECULE
MolPort-047-073-941 MCULE-8308762370 PubChem-132767230
 34 37 0 0 0
SMALL
GASTEIGER

@<TRIPOS>ATOM
      1 N          12.4839   42.1729    5.9185 N.pl3   1  UNL1       -0.2781
      2 H          12.1542   42.4141    5.0227 H       1  UNL1        0.1555
      3 C          11.6076   41.4170    6.7623 C.ar    1  UNL1        0.1361
      4 C          12.1447   40.6929    7.8243 C.ar    1  UNL1        0.0492
      5 C          11.2803   39.9710    8.6477 C.ar    1  UNL1        0.0641
      6 C           9.4325   40.7114    7.3753 C.ar    1  UNL1        0.1406
      7 C           7.9677   40.7297    7.1370 C.3     1  UNL1        0.0737
      8 N           9.9411   39.9987    8.4132 N.ar    1  UNL1       -0.2349
      9 N          10.2624   41.4149    6.5605 N.ar    1  UNL1       -0.2159
     10 C          11.8380   39.2212    9.8120 C.3     1  UNL1        0.0564
     11 C          13.1800   39.7949   10.2726 C.3     1  UNL1        0.0087
     12 C          13.7250   39.0068   11.4698 C.3     1  UNL1        0.0178
     13 C          13.3274   37.5268   11.4270 C.3     1  UNL1        0.0731
     14 C          11.9194   37.7143    9.5050 C.3     1  UNL1        0.0789
     15 N          13.1355   37.0872   10.0451 N.3     1  UNL1       -0.2596
     16 C          12.8849   35.6558   10.0862 C.3     1  UNL1        0.1795
     17 C          13.9925   34.9433    9.4420 C.1     1  UNL1        0.0912
     18 N          14.8641   34.3695    8.9330 N.1     1  UNL1       -0.1944
     19 C          15.7452   42.6821    7.3843 C.ar    1  UNL1        0.1429
     20 C          15.9618   43.7641    6.5235 C.ar    1  UNL1        0.0619
     21 C          13.8003   42.6053    6.2744 C.ar    1  UNL1        0.1648
     22 S          14.5819   43.9039    5.5636 S.2     1  UNL1       -0.0507
     23 N          14.5495   42.0457    7.2468 N.ar    1  UNL1       -0.2193
     24 C          16.7251   42.2626    8.3954 C.2     1  UNL1        0.2644
     25 N          16.5826   40.9902    9.0341 N.am    1  UNL1       -0.2956
     26 O          17.6827   43.0240    8.7022 O.2     1  UNL1       -0.2685
     27 H          15.8834   40.3762    8.7126 H       1  UNL1        0.1501
     28 C          17.4296   40.5661   10.1403 C.3     1  UNL1        0.1166
     29 C          17.7878   39.1253    9.9898 C.ar    1  UNL1       -0.0026
     30 C          16.7808   38.1583    9.8785 C.ar    1  UNL1       -0.0026
     31 C          17.1190   36.8099    9.7132 C.ar    1  UNL1       -0.0003
     32 C          18.4639   36.4280    9.6554 C.ar    1  UNL1       -0.0000
     33 C          19.4708   37.3937    9.7617 C.ar    1  UNL1       -0.0003
     34 C          19.1334   38.7419    9.9269 C.ar    1  UNL1       -0.0026
@<TRIPOS>BOND
     1    19    24    1
     2    19    23   ar
     3    20    22   ar
     4    21    22   ar
     5    21     1    1
     6     3     9   ar
     7     4     5   ar
     8    10     5    1
     9    10    11    1
    10    11    12    1
    11    12    13    1
    12    13    15    1
    13    16    15    1
    14    16    17    1
    15    14    15    1
    16    14    10    1
    17     6     8   ar
    18     7     6    1
    19    24    25   am
    20    28    25    1
    21    28    29    1
    22    30    31   ar
    23    32    33   ar
    24    34    29   ar
    25     1     3    1
    26    19    20   ar
    27    21    23   ar
    28     3     4   ar
    29     5     8   ar
    30     6     9   ar
    31    24    26    2
    32    29    30   ar
    33    31    32   ar
    34    33    34   ar
    35    17    18    3
    36     1     2    1
    37    25    27    1
@<TRIPOS>MOLECULE
MolPort-047-073-941 MCULE-8308762370 PubChem-132767230
 34 37 0 0 0
SMALL
GASTEIGER

@<TRIPOS>ATOM
      1 N          12.8987   42.4023    6.1462 N.pl3   1  UNL1       -0.2781
      2 H          12.9631   42.8354    5.2644 H       1  UNL1        0.1555
      3 C          14.0984   42.3054    6.9226 C.ar    1  UNL1        0.1361
      4 C          14.2006   41.3119    7.8937 C.ar    1  UNL1        0.0492
      5 C          15.3790   41.2185    8.6347 C.ar    1  UNL1        0.0641
      6 C          16.2893   43.0400    7.4369 C.ar    1  UNL1        0.1406
      7 C          17.4195   43.9680    7.1829 C.3     1  UNL1        0.0737
      8 N          16.4033   42.0784    8.3888 N.ar    1  UNL1       -0.2349
      9 N          15.1454   43.1476    6.7108 N.ar    1  UNL1       -0.2159
     10 C          15.5170   40.1349    9.6525 C.3     1  UNL1        0.0564
     11 C          16.9759   39.9133   10.0582 C.3     1  UNL1        0.0087
     12 C          17.0847   38.7982   11.1052 C.3     1  UNL1        0.0178
     13 C          16.0093   37.7202   10.9270 C.3     1  UNL1        0.0731
     14 C          14.8402   38.8392    9.1683 C.3     1  UNL1        0.0789
     15 N          15.5998   37.6312    9.5256 N.3     1  UNL1       -0.2596
     16 C          14.6778   36.5119    9.4232 C.3     1  UNL1        0.1795
     17 C          13.2982   37.0076    9.4352 C.1     1  UNL1        0.0912
     18 N          12.2046   37.3970    9.4553 N.1     1  UNL1       -0.1944
     19 C           9.8944   41.4389    7.9040 C.ar    1  UNL1        0.1429
     20 C           9.3857   40.8803    6.7259 C.ar    1  UNL1        0.0619
     21 C          11.6143   41.9193    6.5506 C.ar    1  UNL1        0.1648
     22 S          10.5496   41.1271    5.5303 S.2     1  UNL1       -0.0507
     23 N          11.1266   42.0095    7.8053 N.ar    1  UNL1       -0.2193
     24 C           9.1685   41.3981    9.1807 C.2     1  UNL1        0.2644
     25 N           7.8149   41.8580    9.2404 N.am    1  UNL1       -0.2956
     26 O           9.7392   40.9657   10.2190 O.2     1  UNL1       -0.2685
     27 H           7.3620   42.1029    8.4012 H       1  UNL1        0.1501
     28 C           7.0796   41.9785   10.4917 C.3     1  UNL1        0.1166
     29 C           5.6147   41.8432   10.2415 C.ar    1  UNL1       -0.0026
     30 C           4.9494   42.7771    9.4374 C.ar    1  UNL1       -0.0026
     31 C           3.5799   42.6349    9.1843 C.ar    1  UNL1       -0.0003
     32 C           2.8755   41.5570    9.7319 C.ar    1  UNL1       -0.0000
     33 C           3.5400   40.6206   10.5315 C.ar    1  UNL1       -0.0003
     34 C           4.9091   40.7622   10.7849 C.ar    1  UNL1       -0.0026
@<TRIPOS>BOND
     1    19    24    1
     2    19    23   ar
     3    20    22   ar
     4    21    22   ar
     5    21     1    1
     6     3     9   ar
     7     4     5   ar
     8    10     5    1
     9    10    11    1
    10    11    12    1
    11    12    13    1
    12    13    15    1
    13    16    15    1
    14    16    17    1
    15    14    15    1
    16    14    10    1
    17     6     8   ar
    18     7     6    1
    19    24    25   am
    20    28    25    1
    21    28    29    1
    22    30    31   ar
    23    32    33   ar
    24    34    29   ar
    25     1     3    1
    26    19    20   ar
    27    21    23   ar
    28     3     4   ar
    29     5     8   ar
    30     6     9   ar
    31    24    26    2
    32    29    30   ar
    33    31    32   ar
    34    33    34   ar
    35    17    18    3
    36     1     2    1
    37    25    27    1
@<TRIPOS>MOLECULE
MolPort-047-073-941 MCULE-8308762370 PubChem-132767230
 34 37 0 0 0
SMALL
GASTEIGER

@<TRIPOS>ATOM
      1 N          14.3293   38.7677   11.2862 N.pl3   1  UNL1       -0.2781
      2 H          14.3779   38.2830   12.1417 H       1  UNL1        0.1555
      3 C          15.5657   39.1662   10.6828 C.ar    1  UNL1        0.1361
      4 C          15.5737   40.2416    9.7972 C.ar    1  UNL1        0.0492
      5 C          16.7859   40.6294    9.2258 C.ar    1  UNL1        0.0641
      6 C          17.9057   38.9248   10.4182 C.ar    1  UNL1        0.1406
      7 C          19.1653   38.2187   10.7613 C.3     1  UNL1        0.0737
      8 N          17.9296   39.9696    9.5513 N.ar    1  UNL1       -0.2349
      9 N          16.7316   38.5312   10.9785 N.ar    1  UNL1       -0.2159
     10 C          16.8156   41.8038    8.3044 C.3     1  UNL1        0.0564
     11 C          17.4370   43.0355    8.9671 C.3     1  UNL1        0.0087
     12 C          17.4561   44.2224    7.9964 C.3     1  UNL1        0.0178
     13 C          16.2696   44.2046    7.0256 C.3     1  UNL1        0.0731
     14 C          15.4134   42.0893    7.7354 C.3     1  UNL1        0.0789
     15 N          15.1226   43.5274    7.6301 N.3     1  UNL1       -0.2596
     16 C          14.0123   43.6627    6.7015 C.3     1  UNL1        0.1795
     17 C          14.5275   43.8702    5.3448 C.1     1  UNL1        0.0912
     18 N          14.9414   44.0431    4.2739 N.1     1  UNL1       -0.1944
     19 C          11.0810   40.0660   10.3879 C.ar    1  UNL1        0.1429
     20 C          10.8470   38.9326    9.6009 C.ar    1  UNL1        0.0619
     21 C          13.0294   39.0185   10.7441 C.ar    1  UNL1        0.1648
     22 S          12.2232   37.9650    9.7230 S.2     1  UNL1       -0.0507
     23 N          12.2858   40.1097   11.0205 N.ar    1  UNL1       -0.2193
     24 C          10.0897   41.1379   10.5519 C.2     1  UNL1        0.2644
     25 N           8.7240   40.8994   10.1978 N.am    1  UNL1       -0.2956
     26 O          10.4436   42.2639   10.9965 O.2     1  UNL1       -0.2685
     27 H           8.4550   39.9876    9.9419 H       1  UNL1        0.1501
     28 C           7.7157   41.9502   10.2005 C.3     1  UNL1        0.1166
     29 C           7.3623   42.3262    8.8003 C.ar    1  UNL1       -0.0026
     30 C           7.0400   43.6530    8.4885 C.ar    1  UNL1       -0.0026
     31 C           6.7322   44.0084    7.1698 C.ar    1  UNL1       -0.0003
     32 C           6.7500   43.0383    6.1616 C.ar    1  UNL1       -0.0000
     33 C           7.0765   41.7133    6.4709 C.ar    1  UNL1       -0.0003
     34 C           7.3844   41.3575    7.7890 C.ar    1  UNL1       -0.0026
@<TRIPOS>BOND
     1    19    24    1
     2    19    23   ar
     3    20    22   ar
     4    21    22   ar
     5    21     1    1
     6     3     9   ar
     7     4     5   ar
     8    10     5    1
     9    10    11    1
    10    11    12    1
    11    12    13    1
    12    13    15    1
    13    16    15    1
    14    16    17    1
    15    14    15    1
    16    14    10    1
    17     6     8   ar
    18     7     6    1
    19    24    25   am
    20    28    25    1
    21    28    29    1
    22    30    31   ar
    23    32    33   ar
    24    34    29   ar
    25     1     3    1
    26    19    20   ar
    27    21    23   ar
    28     3     4   ar
    29     5     8   ar
    30     6     9   ar
    31    24    26    2
    32    29    30   ar
    33    31    32   ar
    34    33    34   ar
    35    17    18    3
    36     1     2    1
    37    25    27    1
@<TRIPOS>MOLECULE
MolPort-047-073-941 MCULE-8308762370 PubChem-132767230
 34 37 0 0 0
SMALL
GASTEIGER

@<TRIPOS>ATOM
      1 N          13.0838   39.6121   10.8588 N.pl3   1  UNL1       -0.2781
      2 H          12.8561   38.8720   11.4667 H       1  UNL1        0.1555
      3 C          14.4528   39.7382   10.4570 C.ar    1  UNL1        0.1361
      4 C          14.7962   40.6970    9.5064 C.ar    1  UNL1        0.0492
      5 C          16.1346   40.8199    9.1325 C.ar    1  UNL1        0.0641
      6 C          16.7239   39.0939   10.6343 C.ar    1  UNL1        0.1406
      7 C          17.7647   38.2340   11.2507 C.3     1  UNL1        0.0737
      8 N          17.0741   40.0223    9.7073 N.ar    1  UNL1       -0.2349
      9 N          15.4232   38.9580   11.0046 N.ar    1  UNL1       -0.2159
     10 C          16.5224   41.8685    8.1431 C.3     1  UNL1        0.0564
     11 C          17.3414   42.9890    8.7880 C.3     1  UNL1        0.0087
     12 C          17.7267   44.0475    7.7476 C.3     1  UNL1        0.0178
     13 C          16.6685   44.2017    6.6490 C.3     1  UNL1        0.0731
     14 C          15.2855   42.4019    7.3969 C.3     1  UNL1        0.0789
     15 N          15.3435   43.8526    7.1608 N.3     1  UNL1       -0.2596
     16 C          14.3900   44.1426    6.1025 C.3     1  UNL1        0.1795
     17 C          13.4485   43.0268    5.9685 C.1     1  UNL1        0.0912
     18 N          12.7076   42.1404    5.8526 N.1     1  UNL1       -0.1944
     19 C           9.9847   41.4100   10.4040 C.ar    1  UNL1        0.1429
     20 C          10.5424   42.0943    9.3181 C.ar    1  UNL1        0.0619
     21 C          12.0212   40.4766   10.4465 C.ar    1  UNL1        0.1648
     22 S          12.1246   41.5337    9.1525 S.2     1  UNL1       -0.0507
     23 N          10.8024   40.5150   11.0237 N.ar    1  UNL1       -0.2193
     24 C           8.5980   41.6142   10.8445 C.2     1  UNL1        0.2644
     25 N           7.5191   41.2496    9.9783 N.am    1  UNL1       -0.2956
     26 O           8.3617   42.1144   11.9780 O.2     1  UNL1       -0.2685
     27 H           7.7259   40.7767    9.1399 H       1  UNL1        0.1501
     28 C           6.1276   41.5493   10.2860 C.3     1  UNL1        0.1166
     29 C           5.6157   42.6092    9.3688 C.ar    1  UNL1       -0.0026
     30 C           4.2905   43.0502    9.4739 C.ar    1  UNL1       -0.0026
     31 C           3.8191   44.0616    8.6284 C.ar    1  UNL1       -0.0003
     32 C           4.6732   44.6353    7.6802 C.ar    1  UNL1       -0.0000
     33 C           5.9987   44.1990    7.5774 C.ar    1  UNL1       -0.0003
     34 C           6.4706   43.1880    8.4223 C.ar    1  UNL1       -0.0026
@<TRIPOS>BOND
     1    19    24    1
     2    19    23   ar
     3    20    22   ar
     4    21    22   ar
     5    21     1    1
     6     3     9   ar
     7     4     5   ar
     8    10     5    1
     9    10    11    1
    10    11    12    1
    11    12    13    1
    12    13    15    1
    13    16    15    1
    14    16    17    1
    15    14    15    1
    16    14    10    1
    17     6     8   ar
    18     7     6    1
    19    24    25   am
    20    28    25    1
    21    28    29    1
    22    30    31   ar
    23    32    33   ar
    24    34    29   ar
    25     1     3    1
    26    19    20   ar
    27    21    23   ar
    28     3     4   ar
    29     5     8   ar
    30     6     9   ar
    31    24    26    2
    32    29    30   ar
    33    31    32   ar
    34    33    34   ar
    35    17    18    3
    36     1     2    1
    37    25    27    1
@<TRIPOS>MOLECULE
MolPort-047-073-941 MCULE-8308762370 PubChem-132767230
 34 37 0 0 0
SMALL
GASTEIGER

@<TRIPOS>ATOM
      1 N          12.4794   42.3823    5.8925 N.pl3   1  UNL1       -0.2781
      2 H          12.5099   43.0974    5.2165 H       1  UNL1        0.1555
      3 C          13.6275   42.2201    6.7333 C.ar    1  UNL1        0.1361
      4 C          13.6517   41.1767    7.6561 C.ar    1  UNL1        0.0492
      5 C          14.7807   41.0203    8.4605 C.ar    1  UNL1        0.0641
      6 C          15.7965   42.8796    7.4152 C.ar    1  UNL1        0.1406
      7 C          16.9573   43.7942    7.2777 C.3     1  UNL1        0.0737
      8 N          15.8342   41.8688    8.3211 N.ar    1  UNL1       -0.2349
      9 N          14.7011   43.0487    6.6285 N.ar    1  UNL1       -0.2159
     10 C          14.8360   39.8839    9.4272 C.3     1  UNL1        0.0564
     11 C          13.8991   40.0995   10.6180 C.3     1  UNL1        0.0087
     12 C          13.9759   38.9161   11.5902 C.3     1  UNL1        0.0178
     13 C          15.3680   38.2748   11.6239 C.3     1  UNL1        0.0731
     14 C          16.2862   39.6074    9.8653 C.3     1  UNL1        0.0789
     15 N          16.3952   39.2614   11.2909 N.3     1  UNL1       -0.2596
     16 C          17.6826   38.6092   11.4657 C.3     1  UNL1        0.1795
     17 C          18.5031   38.8099   10.2676 C.1     1  UNL1        0.0912
     18 N          19.1457   38.9764    9.3149 N.1     1  UNL1       -0.1944
     19 C           9.2868   40.8810    6.6653 C.ar    1  UNL1        0.1429
     20 C           9.5202   39.8921    5.7030 C.ar    1  UNL1        0.0619
     21 C          11.2918   41.5873    5.9572 C.ar    1  UNL1        0.1648
     22 S          11.0245   40.2277    5.0178 S.2     1  UNL1       -0.0507
     23 N          10.2680   41.8144    6.8059 N.ar    1  UNL1       -0.2193
     24 C           8.0763   40.9100    7.4974 C.2     1  UNL1        0.2644
     25 N           8.0810   41.6387    8.7288 N.am    1  UNL1       -0.2956
     26 O           7.0413   40.2898    7.1299 O.2     1  UNL1       -0.2685
     27 H           8.8669   42.1894    8.9485 H       1  UNL1        0.1501
     28 C           6.9708   41.5990    9.6705 C.3     1  UNL1        0.1166
     29 C           5.8785   42.5081    9.2151 C.ar    1  UNL1       -0.0026
     30 C           4.5493   42.2415    9.5666 C.ar    1  UNL1       -0.0026
     31 C           3.5288   43.1087    9.1587 C.ar    1  UNL1       -0.0003
     32 C           3.8370   44.2449    8.4023 C.ar    1  UNL1       -0.0000
     33 C           5.1652   44.5150    8.0546 C.ar    1  UNL1       -0.0003
     34 C           6.1858   43.6485    8.4622 C.ar    1  UNL1       -0.0026
@<TRIPOS>BOND
     1    19    24    1
     2    19    23   ar
     3    20    22   ar
     4    21    22   ar
     5    21     1    1
     6     3     9   ar
     7     4     5   ar
     8    10     5    1
     9    10    11    1
    10    11    12    1
    11    12    13    1
    12    13    15    1
    13    16    15    1
    14    16    17    1
    15    14    15    1
    16    14    10    1
    17     6     8   ar
    18     7     6    1
    19    24    25   am
    20    28    25    1
    21    28    29    1
    22    30    31   ar
    23    32    33   ar
    24    34    29   ar
    25     1     3    1
    26    19    20   ar
    27    21    23   ar
    28     3     4   ar
    29     5     8   ar
    30     6     9   ar
    31    24    26    2
    32    29    30   ar
    33    31    32   ar
    34    33    34   ar
    35    17    18    3
    36     1     2    1
    37    25    27    1
@<TRIPOS>MOLECULE
MolPort-047-073-941 MCULE-8308762370 PubChem-132767230
 34 37 0 0 0
SMALL
GASTEIGER

@<TRIPOS>ATOM
      1 N          14.7528   38.8910   11.4712 N.pl3   1  UNL1       -0.2781
      2 H          14.7446   39.0230   12.4468 H       1  UNL1        0.1555
      3 C          15.9353   39.2804   10.7629 C.ar    1  UNL1        0.1361
      4 C          15.8643   40.3273    9.8465 C.ar    1  UNL1        0.0492
      5 C          17.0252   40.7068    9.1723 C.ar    1  UNL1        0.0641
      6 C          18.2508   39.0501   10.3275 C.ar    1  UNL1        0.1406
      7 C          19.5403   38.3656   10.5948 C.3     1  UNL1        0.0737
      8 N          18.1973   40.0672    9.4294 N.ar    1  UNL1       -0.2349
      9 N          17.1271   38.6647   10.9880 N.ar    1  UNL1       -0.2159
     10 C          16.9720   41.8517    8.2155 C.3     1  UNL1        0.0564
     11 C          17.5633   43.1285    8.8174 C.3     1  UNL1        0.0087
     12 C          17.4973   44.2839    7.8114 C.3     1  UNL1        0.0178
     13 C          16.2790   44.1861    6.8859 C.3     1  UNL1        0.0731
     14 C          15.5396   42.0605    7.6901 C.3     1  UNL1        0.0789
     15 N          15.1841   43.4812    7.5522 N.3     1  UNL1       -0.2596
     16 C          14.0368   43.5408    6.6615 C.3     1  UNL1        0.1795
     17 C          12.9282   42.7713    7.2342 C.1     1  UNL1        0.0912
     18 N          12.0448   42.1626    7.6782 N.1     1  UNL1       -0.1944
     19 C          11.6407   38.2368    9.7593 C.ar    1  UNL1        0.1429
     20 C          11.7362   36.8841   10.1051 C.ar    1  UNL1        0.0619
     21 C          13.5828   38.3253   10.8732 C.ar    1  UNL1        0.1648
     22 S          13.1663   36.7076   10.9819 S.2     1  UNL1       -0.0507
     23 N          12.6603   39.0312   10.1871 N.ar    1  UNL1       -0.2193
     24 C          10.5060   38.7858    9.0045 C.2     1  UNL1        0.2644
     25 N           9.8629   37.9833    8.0097 N.am    1  UNL1       -0.2956
     26 O          10.1063   39.9608    9.2291 O.2     1  UNL1       -0.2685
     27 H          10.1315   37.0406    7.9175 H       1  UNL1        0.1501
     28 C           8.8274   38.5038    7.1279 C.3     1  UNL1        0.1166
     29 C           9.4282   38.9470    5.8358 C.ar    1  UNL1       -0.0026
     30 C          10.1973   40.1163    5.7823 C.ar    1  UNL1       -0.0026
     31 C          10.7801   40.5174    4.5743 C.ar    1  UNL1       -0.0003
     32 C          10.5974   39.7479    3.4200 C.ar    1  UNL1       -0.0000
     33 C           9.8333   38.5769    3.4732 C.ar    1  UNL1       -0.0003
     34 C           9.2505   38.1754    4.6805 C.ar    1  UNL1       -0.0026
@<TRIPOS>BOND
     1    19    24    1
     2    19    23   ar
     3    20    22   ar
     4    21    22   ar
     5    21     1    1
     6     3     9   ar
     7     4     5   ar
     8    10     5    1
     9    10    11    1
    10    11    12    1
    11    12    13    1
    12    13    15    1
    13    16    15    1
    14    16    17    1
    15    14    15    1
    16    14    10    1
    17     6     8   ar
    18     7     6    1
    19    24    25   am
    20    28    25    1
    21    28    29    1
    22    30    31   ar
    23    32    33   ar
    24    34    29   ar
    25     1     3    1
    26    19    20   ar
    27    21    23   ar
    28     3     4   ar
    29     5     8   ar
    30     6     9   ar
    31    24    26    2
    32    29    30   ar
    33    31    32   ar
    34    33    34   ar
    35    17    18    3
    36     1     2    1
    37    25    27    1
@<TRIPOS>MOLECULE
MolPort-047-073-941 MCULE-8308762370 PubChem-132767230
 34 37 0 0 0
SMALL
GASTEIGER

@<TRIPOS>ATOM
      1 N          12.5522   42.8809    5.6653 N.pl3   1  UNL1       -0.2781
      2 H          12.2821   43.3125    4.8227 H       1  UNL1        0.1555
      3 C          11.5959   42.0285    6.3059 C.ar    1  UNL1        0.1361
      4 C          11.1987   42.3132    7.6104 C.ar    1  UNL1        0.0492
      5 C          10.2566   41.4839    8.2196 C.ar    1  UNL1        0.0641
      6 C          10.1306   40.1697    6.2604 C.ar    1  UNL1        0.1406
      7 C           9.5482   39.0182    5.5272 C.3     1  UNL1        0.0737
      8 N           9.7350   40.4328    7.5325 N.ar    1  UNL1       -0.2349
      9 N          11.0520   40.9649    5.6554 N.ar    1  UNL1       -0.2159
     10 C           9.7936   41.7991    9.6035 C.3     1  UNL1        0.0564
     11 C          10.4164   40.8634   10.6423 C.3     1  UNL1        0.0087
     12 C           9.9246   41.2135   12.0520 C.3     1  UNL1        0.0178
     13 C           8.4929   41.7615   12.0539 C.3     1  UNL1        0.0731
     14 C           8.2555   41.8145    9.6764 C.3     1  UNL1        0.0789
     15 N           7.7375   41.2265   10.9213 N.3     1  UNL1       -0.2596
     16 C           6.3683   41.6929   11.0661 C.3     1  UNL1        0.1795
     17 C           5.5906   41.3121    9.8832 C.1     1  UNL1        0.0912
     18 N           4.9683   41.0195    8.9477 N.1     1  UNL1       -0.1944
     19 C          15.7376   42.9207    7.3670 C.ar    1  UNL1        0.1429
     20 C          16.0834   44.0955    6.6897 C.ar    1  UNL1        0.0619
     21 C          13.8689   43.1547    6.1531 C.ar    1  UNL1        0.1648
     22 S          14.7821   44.4782    5.6871 S.2     1  UNL1       -0.0507
     23 N          14.5129   42.4047    7.0711 N.ar    1  UNL1       -0.2193
     24 C          16.6183   42.2855    8.3566 C.2     1  UNL1        0.2644
     25 N          16.3385   40.9551    8.8027 N.am    1  UNL1       -0.2956
     26 O          17.6118   42.9134    8.8144 O.2     1  UNL1       -0.2685
     27 H          15.6145   40.4525    8.3640 H       1  UNL1        0.1501
     28 C          17.0807   40.3139    9.8793 C.3     1  UNL1        0.1166
     29 C          16.2148   39.3203   10.5791 C.ar    1  UNL1       -0.0026
     30 C          16.7818   38.1782   11.1585 C.ar    1  UNL1       -0.0026
     31 C          15.9709   37.2594   11.8354 C.ar    1  UNL1       -0.0003
     32 C          14.5935   37.4837   11.9367 C.ar    1  UNL1       -0.0000
     33 C          14.0265   38.6268   11.3625 C.ar    1  UNL1       -0.0003
     34 C          14.8366   39.5457   10.6857 C.ar    1  UNL1       -0.0026
@<TRIPOS>BOND
     1    19    24    1
     2    19    23   ar
     3    20    22   ar
     4    21    22   ar
     5    21     1    1
     6     3     9   ar
     7     4     5   ar
     8    10     5    1
     9    10    11    1
    10    11    12    1
    11    12    13    1
    12    13    15    1
    13    16    15    1
    14    16    17    1
    15    14    15    1
    16    14    10    1
    17     6     8   ar
    18     7     6    1
    19    24    25   am
    20    28    25    1
    21    28    29    1
    22    30    31   ar
    23    32    33   ar
    24    34    29   ar
    25     1     3    1
    26    19    20   ar
    27    21    23   ar
    28     3     4   ar
    29     5     8   ar
    30     6     9   ar
    31    24    26    2
    32    29    30   ar
    33    31    32   ar
    34    33    34   ar
    35    17    18    3
    36     1     2    1
    37    25    27    1
