@<TRIPOS>MOLECULE
MolPort-008-345-345 6204350 CSSS00121599792 MCULE-8793457033 PubChem-4221437 ZINC000006204350 ZINC06204350
 23 24 0 0 0
SMALL
GASTEIGER

@<TRIPOS>ATOM
      1 C          12.5404   41.8090    6.4062 C.2     1  UNL1        0.2547
      2 N          12.8705   43.0428    5.7553 N.am    1  UNL1       -0.2479
      3 O          13.3774   41.2667    7.1794 O.2     1  UNL1       -0.2696
      4 H          12.1944   43.4340    5.1560 H       1  UNL1        0.1581
      5 C          11.2260   41.1521    6.1813 C.ar    1  UNL1        0.0893
      6 C          10.1699   41.1879    7.1300 C.ar    1  UNL1        0.1535
      7 C           8.9386   40.5544    6.8144 C.ar    1  UNL1        0.0925
      8 C           8.7913   39.8747    5.6044 C.ar    1  UNL1        0.0259
      9 C           9.8409   39.8131    4.6947 C.ar    1  UNL1        0.0589
     10 C          11.0429   40.4540    4.9784 C.ar    1  UNL1        0.0190
     11 CL          7.5110   40.6544    7.8352 Cl      1  UNL1       -0.0791
     12 CL          9.6425   38.9519    3.1844 Cl      1  UNL1       -0.0822
     13 C           9.4241   41.9016    9.4018 C.3     1  UNL1        0.2525
     14 O          10.3695   41.8648    8.3428 O.3     1  UNL1       -0.4704
     15 C          14.1043   43.7509    5.9074 C.ar    1  UNL1        0.2619
     16 N          16.0742   44.2047    6.4412 N.ar    1  UNL1       -0.1497
     17 N          15.5859   45.2550    5.8044 N.ar    1  UNL1       -0.0438
     18 N          14.3355   45.0000    5.4537 N.ar    1  UNL1       -0.0918
     19 N          15.1808   43.2337    6.5261 N.ar    1  UNL1       -0.1137
     20 C          17.4305   44.1225    6.9552 C.3     1  UNL1        0.1514
     21 C          17.4193   43.5639    8.3685 C.3     1  UNL1        0.0283
     22 C          16.8408   41.2772    9.1752 C.3     1  UNL1        0.0001
     23 C          17.8229   42.1006    8.3633 C.3     1  UNL1        0.0021
@<TRIPOS>BOND
     1    22    23    1
     2    23    21    1
     3    21    20    1
     4    20    16    1
     5    15    18   ar
     6    15     2    1
     7     1     5    1
     8     6    14    1
     9     6     7   ar
    10    13    14    1
    11     7    11    1
    12     8     9   ar
    13     9    12    1
    14    10     5   ar
    15    16    17   ar
    16    16    19   ar
    17     2     1   am
    18    15    19   ar
    19     1     3    2
    20     5     6   ar
    21     7     8   ar
    22     9    10   ar
    23    17    18   ar
    24     2     4    1
@<TRIPOS>MOLECULE
MolPort-008-345-345 6204350 CSSS00121599792 MCULE-8793457033 PubChem-4221437 ZINC000006204350 ZINC06204350
 23 24 0 0 0
SMALL
GASTEIGER

@<TRIPOS>ATOM
      1 C          12.0905   42.1257    7.2352 C.2     1  UNL1        0.2547
      2 N          12.6463   42.7009    6.0455 N.am    1  UNL1       -0.2479
      3 O          12.6897   42.2673    8.3367 O.2     1  UNL1       -0.2696
      4 H          12.1534   42.5661    5.2040 H       1  UNL1        0.1581
      5 C          10.8184   41.3579    7.1925 C.ar    1  UNL1        0.0893
      6 C          10.7545   39.9532    7.3912 C.ar    1  UNL1        0.1535
      7 C           9.4887   39.3100    7.3603 C.ar    1  UNL1        0.0925
      8 C           8.3343   40.0491    7.0978 C.ar    1  UNL1        0.0259
      9 C           8.4073   41.4186    6.8691 C.ar    1  UNL1        0.0589
     10 C           9.6374   42.0664    6.9253 C.ar    1  UNL1        0.0190
     11 CL          9.2600   37.6085    7.7381 Cl      1  UNL1       -0.0791
     12 CL          6.9515   42.3304    6.5354 Cl      1  UNL1       -0.0822
     13 C          12.3599   38.7963    8.9114 C.3     1  UNL1        0.2525
     14 O          11.9430   39.2468    7.6309 O.3     1  UNL1       -0.4704
     15 C          13.8604   43.4553    5.9839 C.ar    1  UNL1        0.2619
     16 N          15.8704   43.9926    6.1894 N.ar    1  UNL1       -0.1497
     17 N          15.2482   45.0057    5.6119 N.ar    1  UNL1       -0.0438
     18 N          13.9691   44.6973    5.4690 N.ar    1  UNL1       -0.0918
     19 N          15.0397   42.9944    6.4377 N.ar    1  UNL1       -0.1137
     20 C          17.2927   43.9727    6.4851 C.3     1  UNL1        0.1514
     21 C          17.5166   43.6131    7.9445 C.3     1  UNL1        0.0283
     22 C          17.1383   41.4765    9.1720 C.3     1  UNL1        0.0001
     23 C          17.9328   42.1590    8.0744 C.3     1  UNL1        0.0021
@<TRIPOS>BOND
     1    22    23    1
     2    23    21    1
     3    21    20    1
     4    20    16    1
     5    15    18   ar
     6    15     2    1
     7     1     5    1
     8     6    14    1
     9     6     7   ar
    10    13    14    1
    11     7    11    1
    12     8     9   ar
    13     9    12    1
    14    10     5   ar
    15    16    17   ar
    16    16    19   ar
    17     2     1   am
    18    15    19   ar
    19     1     3    2
    20     5     6   ar
    21     7     8   ar
    22     9    10   ar
    23    17    18   ar
    24     2     4    1
@<TRIPOS>MOLECULE
MolPort-008-345-345 6204350 CSSS00121599792 MCULE-8793457033 PubChem-4221437 ZINC000006204350 ZINC06204350
 23 24 0 0 0
SMALL
GASTEIGER

@<TRIPOS>ATOM
      1 C          12.7564   41.0394    7.5082 C.2     1  UNL1        0.2547
      2 N          12.7129   41.9802    6.4275 N.am    1  UNL1       -0.2479
      3 O          13.7363   41.0457    8.3033 O.2     1  UNL1       -0.2696
      4 H          11.9352   41.9426    5.8250 H       1  UNL1        0.1581
      5 C          11.6655   40.0492    7.7060 C.ar    1  UNL1        0.0893
      6 C          10.4313   40.1065    7.0060 C.ar    1  UNL1        0.1535
      7 C           9.4587   39.0986    7.2410 C.ar    1  UNL1        0.0925
      8 C           9.7047   38.0934    8.1774 C.ar    1  UNL1        0.0259
      9 C          10.9008   38.0628    8.8854 C.ar    1  UNL1        0.0589
     10 C          11.8743   39.0272    8.6440 C.ar    1  UNL1        0.0190
     11 CL          7.9587   38.9729    6.3330 Cl      1  UNL1       -0.0791
     12 CL         11.1919   36.7992   10.0605 Cl      1  UNL1       -0.0822
     13 C           9.1386   42.0666    6.1614 C.3     1  UNL1        0.2525
     14 O          10.2185   41.1472    6.0893 O.3     1  UNL1       -0.4704
     15 C          13.7099   42.9696    6.1549 C.ar    1  UNL1        0.2619
     16 N          15.5332   43.9925    6.1432 N.ar    1  UNL1       -0.1497
     17 N          14.6824   44.6940    5.4142 N.ar    1  UNL1       -0.0438
     18 N          13.5141   44.0724    5.4032 N.ar    1  UNL1       -0.0918
     19 N          14.9680   42.8988    6.6252 N.ar    1  UNL1       -0.1137
     20 C          16.9203   44.3663    6.3598 C.3     1  UNL1        0.1514
     21 C          17.3392   44.0153    7.7778 C.3     1  UNL1        0.0283
     22 C          17.3348   41.7926    8.9068 C.3     1  UNL1        0.0001
     23 C          17.9712   42.6357    7.8177 C.3     1  UNL1        0.0021
@<TRIPOS>BOND
     1    22    23    1
     2    23    21    1
     3    21    20    1
     4    20    16    1
     5    15    18   ar
     6    15     2    1
     7     1     5    1
     8     6    14    1
     9     6     7   ar
    10    13    14    1
    11     7    11    1
    12     8     9   ar
    13     9    12    1
    14    10     5   ar
    15    16    17   ar
    16    16    19   ar
    17     2     1   am
    18    15    19   ar
    19     1     3    2
    20     5     6   ar
    21     7     8   ar
    22     9    10   ar
    23    17    18   ar
    24     2     4    1
@<TRIPOS>MOLECULE
MolPort-008-345-345 6204350 CSSS00121599792 MCULE-8793457033 PubChem-4221437 ZINC000006204350 ZINC06204350
 23 24 0 0 0
SMALL
GASTEIGER

@<TRIPOS>ATOM
      1 C          12.8871   41.3579    7.6352 C.2     1  UNL1        0.2547
      2 N          12.2936   41.6182    6.3566 N.am    1  UNL1       -0.2479
      3 O          12.1822   40.8776    8.5653 O.2     1  UNL1       -0.2696
      4 H          12.8732   41.9970    5.6567 H       1  UNL1        0.1581
      5 C          14.3227   41.6498    7.8871 C.ar    1  UNL1        0.0893
      6 C          15.0161   42.7209    7.2636 C.ar    1  UNL1        0.1535
      7 C          16.3813   42.9394    7.5885 C.ar    1  UNL1        0.0925
      8 C          17.0346   42.0847    8.4777 C.ar    1  UNL1        0.0259
      9 C          16.3598   41.0166    9.0579 C.ar    1  UNL1        0.0589
     10 C          15.0143   40.8082    8.7710 C.ar    1  UNL1        0.0190
     11 CL         17.3059   44.3146    7.0020 Cl      1  UNL1       -0.0791
     12 CL         17.1945   39.9504   10.1663 Cl      1  UNL1       -0.0822
     13 C          14.7720   43.8338    5.0437 C.3     1  UNL1        0.2525
     14 O          14.3253   43.5420    6.3596 O.3     1  UNL1       -0.4704
     15 C          10.9260   41.3713    6.0166 C.ar    1  UNL1        0.2619
     16 N           8.8366   41.3701    6.0898 N.ar    1  UNL1       -0.1497
     17 N           9.1940   40.6973    5.0096 N.ar    1  UNL1       -0.0438
     18 N          10.5152   40.6777    4.9351 N.ar    1  UNL1       -0.0918
     19 N           9.8909   41.8162    6.7512 N.ar    1  UNL1       -0.1137
     20 C           7.4579   41.6103    6.4800 C.3     1  UNL1        0.1514
     21 C           7.0823   43.0566    6.2030 C.3     1  UNL1        0.0283
     22 C           5.4866   44.4101    7.5580 C.3     1  UNL1        0.0001
     23 C           6.8791   43.8102    7.5050 C.3     1  UNL1        0.0021
@<TRIPOS>BOND
     1    22    23    1
     2    23    21    1
     3    21    20    1
     4    20    16    1
     5    15    18   ar
     6    15     2    1
     7     1     5    1
     8     6    14    1
     9     6     7   ar
    10    13    14    1
    11     7    11    1
    12     8     9   ar
    13     9    12    1
    14    10     5   ar
    15    16    17   ar
    16    16    19   ar
    17     2     1   am
    18    15    19   ar
    19     1     3    2
    20     5     6   ar
    21     7     8   ar
    22     9    10   ar
    23    17    18   ar
    24     2     4    1
@<TRIPOS>MOLECULE
MolPort-008-345-345 6204350 CSSS00121599792 MCULE-8793457033 PubChem-4221437 ZINC000006204350 ZINC06204350
 23 24 0 0 0
SMALL
GASTEIGER

@<TRIPOS>ATOM
      1 C          13.1844   41.8396    6.9226 C.2     1  UNL1        0.2547
      2 N          12.0956   40.9681    7.2542 N.am    1  UNL1       -0.2479
      3 O          13.0464   42.6890    5.9997 O.2     1  UNL1       -0.2696
      4 H          12.2414   40.3153    7.9766 H       1  UNL1        0.1581
      5 C          14.4801   41.7560    7.6465 C.ar    1  UNL1        0.0893
      6 C          15.5705   42.6275    7.3857 C.ar    1  UNL1        0.1535
      7 C          16.7604   42.4895    8.1487 C.ar    1  UNL1        0.0925
      8 C          16.8622   41.4835    9.1108 C.ar    1  UNL1        0.0259
      9 C          15.8038   40.6108    9.3370 C.ar    1  UNL1        0.0589
     10 C          14.6216   40.7530    8.6171 C.ar    1  UNL1        0.0190
     11 CL         18.1205   43.5965    8.0265 Cl      1  UNL1       -0.0791
     12 CL         15.9490   39.3508   10.5427 Cl      1  UNL1       -0.0822
     13 C          16.2464   44.7700    6.2996 C.3     1  UNL1        0.2525
     14 O          15.4316   43.6108    6.3944 O.3     1  UNL1       -0.4704
     15 C          10.8137   40.9716    6.6188 C.ar    1  UNL1        0.2619
     16 N           8.7713   41.2655    6.2822 N.ar    1  UNL1       -0.1497
     17 N           9.2726   40.7001    5.1977 N.ar    1  UNL1       -0.0438
     18 N          10.5678   40.4981    5.3799 N.ar    1  UNL1       -0.0918
     19 N           9.7031   41.4593    7.2000 N.ar    1  UNL1       -0.1137
     20 C           7.3779   41.6493    6.4300 C.3     1  UNL1        0.1514
     21 C           6.7046   40.7751    7.4750 C.3     1  UNL1        0.0283
     22 C           6.5408   41.4709    9.8632 C.3     1  UNL1        0.0001
     23 C           5.9492   41.6313    8.4754 C.3     1  UNL1        0.0021
@<TRIPOS>BOND
     1    22    23    1
     2    23    21    1
     3    21    20    1
     4    20    16    1
     5    15    18   ar
     6    15     2    1
     7     1     5    1
     8     6    14    1
     9     6     7   ar
    10    13    14    1
    11     7    11    1
    12     8     9   ar
    13     9    12    1
    14    10     5   ar
    15    16    17   ar
    16    16    19   ar
    17     2     1   am
    18    15    19   ar
    19     1     3    2
    20     5     6   ar
    21     7     8   ar
    22     9    10   ar
    23    17    18   ar
    24     2     4    1
@<TRIPOS>MOLECULE
MolPort-008-345-345 6204350 CSSS00121599792 MCULE-8793457033 PubChem-4221437 ZINC000006204350 ZINC06204350
 23 24 0 0 0
SMALL
GASTEIGER

@<TRIPOS>ATOM
      1 C          13.0446   42.0079    6.9104 C.2     1  UNL1        0.2547
      2 N          11.8555   41.8393    7.6929 N.am    1  UNL1       -0.2479
      3 O          12.9522   42.2023    5.6669 O.2     1  UNL1       -0.2696
      4 H          11.9668   41.6853    8.6589 H       1  UNL1        0.1581
      5 C          14.3901   41.9525    7.5399 C.ar    1  UNL1        0.0893
      6 C          14.7370   41.0102    8.5441 C.ar    1  UNL1        0.1535
      7 C          16.0575   41.0156    9.0670 C.ar    1  UNL1        0.0925
      8 C          16.9820   41.9625    8.6237 C.ar    1  UNL1        0.0259
      9 C          16.6258   42.9051    7.6658 C.ar    1  UNL1        0.0589
     10 C          15.3444   42.8928    7.1237 C.ar    1  UNL1        0.0190
     11 CL         16.6529   39.8106   10.2000 Cl      1  UNL1       -0.0791
     12 CL         17.7946   44.0896    7.1245 Cl      1  UNL1       -0.0822
     13 C          13.2626   40.0261   10.3003 C.3     1  UNL1        0.2525
     14 O          13.7693   40.0903    8.9752 O.3     1  UNL1       -0.4704
     15 C          10.5197   41.8770    7.1817 C.ar    1  UNL1        0.2619
     16 N           8.4402   42.0718    7.0879 N.ar    1  UNL1       -0.1497
     17 N           8.8662   41.7958    5.8675 N.ar    1  UNL1       -0.0438
     18 N          10.1828   41.6638    5.8931 N.ar    1  UNL1       -0.0918
     19 N           9.4440   42.1372    7.9460 N.ar    1  UNL1       -0.1137
     20 C           7.0474   42.3017    7.4314 C.3     1  UNL1        0.1514
     21 C           6.6371   43.7088    7.0300 C.3     1  UNL1        0.0283
     22 C           4.4963   44.8215    7.6572 C.3     1  UNL1        0.0001
     23 C           5.8594   44.3743    8.1510 C.3     1  UNL1        0.0021
@<TRIPOS>BOND
     1    22    23    1
     2    23    21    1
     3    21    20    1
     4    20    16    1
     5    15    18   ar
     6    15     2    1
     7     1     5    1
     8     6    14    1
     9     6     7   ar
    10    13    14    1
    11     7    11    1
    12     8     9   ar
    13     9    12    1
    14    10     5   ar
    15    16    17   ar
    16    16    19   ar
    17     2     1   am
    18    15    19   ar
    19     1     3    2
    20     5     6   ar
    21     7     8   ar
    22     9    10   ar
    23    17    18   ar
    24     2     4    1
@<TRIPOS>MOLECULE
MolPort-008-345-345 6204350 CSSS00121599792 MCULE-8793457033 PubChem-4221437 ZINC000006204350 ZINC06204350
 23 24 0 0 0
SMALL
GASTEIGER

@<TRIPOS>ATOM
      1 C          12.9147   41.7795    7.0848 C.2     1  UNL1        0.2547
      2 N          11.6733   41.6543    7.7905 N.am    1  UNL1       -0.2479
      3 O          12.9083   42.0404    5.8502 O.2     1  UNL1       -0.2696
      4 H          11.7175   41.4459    8.7517 H       1  UNL1        0.1581
      5 C          14.2145   41.6016    7.7838 C.ar    1  UNL1        0.0893
      6 C          15.3150   42.4818    7.6086 C.ar    1  UNL1        0.1535
      7 C          16.5085   42.2469    8.3417 C.ar    1  UNL1        0.0925
      8 C          16.6034   41.1418    9.1889 C.ar    1  UNL1        0.0259
      9 C          15.5347   40.2636    9.3293 C.ar    1  UNL1        0.0589
     10 C          14.3493   40.4981    8.6395 C.ar    1  UNL1        0.0190
     11 CL         17.8829   43.3428    8.3272 Cl      1  UNL1       -0.0791
     12 CL         15.6714   38.8793   10.3909 Cl      1  UNL1       -0.0822
     13 C          16.1782   43.9700    5.8013 C.3     1  UNL1        0.2525
     14 O          15.1823   43.5680    6.7303 O.3     1  UNL1       -0.4704
     15 C          10.3751   41.8082    7.2091 C.ar    1  UNL1        0.2619
     16 N           8.3100   42.0720    7.0172 N.ar    1  UNL1       -0.1497
     17 N           8.8110   41.9791    5.7975 N.ar    1  UNL1       -0.0438
     18 N          10.1206   41.8088    5.8844 N.ar    1  UNL1       -0.0918
     19 N           9.2557   41.9746    7.9360 N.ar    1  UNL1       -0.1137
     20 C           6.9016   42.2831    7.3047 C.3     1  UNL1        0.1514
     21 C           6.5228   43.7273    7.0218 C.3     1  UNL1        0.0283
     22 C           4.3830   44.8512    7.6323 C.3     1  UNL1        0.0001
     23 C           5.6900   44.2895    8.1597 C.3     1  UNL1        0.0021
@<TRIPOS>BOND
     1    22    23    1
     2    23    21    1
     3    21    20    1
     4    20    16    1
     5    15    18   ar
     6    15     2    1
     7     1     5    1
     8     6    14    1
     9     6     7   ar
    10    13    14    1
    11     7    11    1
    12     8     9   ar
    13     9    12    1
    14    10     5   ar
    15    16    17   ar
    16    16    19   ar
    17     2     1   am
    18    15    19   ar
    19     1     3    2
    20     5     6   ar
    21     7     8   ar
    22     9    10   ar
    23    17    18   ar
    24     2     4    1
@<TRIPOS>MOLECULE
MolPort-008-345-345 6204350 CSSS00121599792 MCULE-8793457033 PubChem-4221437 ZINC000006204350 ZINC06204350
 23 24 0 0 0
SMALL
GASTEIGER

@<TRIPOS>ATOM
      1 C          13.0314   41.8598    7.3803 C.2     1  UNL1        0.2547
      2 N          12.0495   42.1940    8.3699 N.am    1  UNL1       -0.2479
      3 O          12.6607   41.4794    6.2356 O.2     1  UNL1       -0.2696
      4 H          12.3760   42.4825    9.2528 H       1  UNL1        0.1581
      5 C          14.4842   41.9491    7.6821 C.ar    1  UNL1        0.0893
      6 C          15.3647   42.8285    6.9980 C.ar    1  UNL1        0.1535
      7 C          16.7333   42.8641    7.3756 C.ar    1  UNL1        0.0925
      8 C          17.2053   42.0151    8.3776 C.ar    1  UNL1        0.0259
      9 C          16.3453   41.1310    9.0196 C.ar    1  UNL1        0.0589
     10 C          14.9962   41.1062    8.6798 C.ar    1  UNL1        0.0190
     11 CL         17.8892   44.0102    6.7118 Cl      1  UNL1       -0.0791
     12 CL         16.9535   40.0686   10.2699 Cl      1  UNL1       -0.0822
     13 C          14.9586   45.0649    5.9685 C.3     1  UNL1        0.2525
     14 O          14.8509   43.6490    5.9824 O.3     1  UNL1       -0.4704
     15 C          10.6329   42.1415    8.1765 C.ar    1  UNL1        0.2619
     16 N           8.7663   41.8974    7.2670 N.ar    1  UNL1       -0.1497
     17 N           8.5504   42.2302    8.5279 N.ar    1  UNL1       -0.0438
     18 N           9.7159   42.3947    9.1329 N.ar    1  UNL1       -0.0918
     19 N          10.0595   41.8252    7.0017 N.ar    1  UNL1       -0.1137
     20 C           7.7122   41.6192    6.3067 C.3     1  UNL1        0.1514
     21 C           7.2020   40.1995    6.4897 C.3     1  UNL1        0.0283
     22 C           8.8886   38.4362    7.0001 C.3     1  UNL1        0.0001
     23 C           8.1827   39.2033    5.8979 C.3     1  UNL1        0.0021
@<TRIPOS>BOND
     1    22    23    1
     2    23    21    1
     3    21    20    1
     4    20    16    1
     5    15    18   ar
     6    15     2    1
     7     1     5    1
     8     6    14    1
     9     6     7   ar
    10    13    14    1
    11     7    11    1
    12     8     9   ar
    13     9    12    1
    14    10     5   ar
    15    16    17   ar
    16    16    19   ar
    17     2     1   am
    18    15    19   ar
    19     1     3    2
    20     5     6   ar
    21     7     8   ar
    22     9    10   ar
    23    17    18   ar
    24     2     4    1
@<TRIPOS>MOLECULE
MolPort-008-345-345 6204350 CSSS00121599792 MCULE-8793457033 PubChem-4221437 ZINC000006204350 ZINC06204350
 23 24 0 0 0
SMALL
GASTEIGER

@<TRIPOS>ATOM
      1 C          12.4289   41.3653    6.8790 C.2     1  UNL1        0.2547
      2 N          11.4199   41.9314    6.0326 N.am    1  UNL1       -0.2479
      3 O          12.2070   40.2737    7.4720 O.2     1  UNL1       -0.2696
      4 H          11.6270   42.7860    5.5899 H       1  UNL1        0.1581
      5 C          13.7352   42.0471    7.0750 C.ar    1  UNL1        0.0893
      6 C          14.7652   41.5248    7.9014 C.ar    1  UNL1        0.1535
      7 C          15.9914   42.2338    8.0050 C.ar    1  UNL1        0.0925
      8 C          16.1581   43.4456    7.3329 C.ar    1  UNL1        0.0259
      9 C          15.1330   43.9696    6.5534 C.ar    1  UNL1        0.0589
     10 C          13.9371   43.2710    6.4197 C.ar    1  UNL1        0.0190
     11 CL         17.3920   41.6203    8.8722 Cl      1  UNL1       -0.0791
     12 CL         15.3553   45.4930    5.7217 Cl      1  UNL1       -0.0822
     13 C          15.0736   40.0069    9.8578 C.3     1  UNL1        0.2525
     14 O          14.5461   40.3139    8.5756 O.3     1  UNL1       -0.4704
     15 C          10.1359   41.3530    5.7800 C.ar    1  UNL1        0.2619
     16 N           8.1308   40.8067    6.0080 N.ar    1  UNL1       -0.1497
     17 N           8.5509   40.2971    4.8630 N.ar    1  UNL1       -0.0438
     18 N           9.8215   40.6241    4.6894 N.ar    1  UNL1       -0.0918
     19 N           9.0908   41.4819    6.6167 N.ar    1  UNL1       -0.1137
     20 C           6.7765   40.6639    6.5143 C.3     1  UNL1        0.1514
     21 C           6.4795   41.7599    7.5243 C.3     1  UNL1        0.0283
     22 C           4.6839   41.2394    9.1733 C.3     1  UNL1        0.0001
     23 C           6.1709   41.1586    8.8836 C.3     1  UNL1        0.0021
@<TRIPOS>BOND
     1    22    23    1
     2    23    21    1
     3    21    20    1
     4    20    16    1
     5    15    18   ar
     6    15     2    1
     7     1     5    1
     8     6    14    1
     9     6     7   ar
    10    13    14    1
    11     7    11    1
    12     8     9   ar
    13     9    12    1
    14    10     5   ar
    15    16    17   ar
    16    16    19   ar
    17     2     1   am
    18    15    19   ar
    19     1     3    2
    20     5     6   ar
    21     7     8   ar
    22     9    10   ar
    23    17    18   ar
    24     2     4    1
@<TRIPOS>MOLECULE
MolPort-008-345-345 6204350 CSSS00121599792 MCULE-8793457033 PubChem-4221437 ZINC000006204350 ZINC06204350
 23 24 0 0 0
SMALL
GASTEIGER

@<TRIPOS>ATOM
      1 C          13.3380   41.0193    8.3583 C.2     1  UNL1        0.2547
      2 N          12.9117   39.7388    7.8752 N.am    1  UNL1       -0.2479
      3 O          12.4788   41.8614    8.7392 O.2     1  UNL1       -0.2696
      4 H          13.6100   39.1094    7.5826 H       1  UNL1        0.1581
      5 C          14.7801   41.3757    8.4137 C.ar    1  UNL1        0.0893
      6 C          15.3241   42.5080    7.7513 C.ar    1  UNL1        0.1535
      7 C          16.7107   42.7842    7.8854 C.ar    1  UNL1        0.0925
      8 C          17.5266   41.9276    8.6259 C.ar    1  UNL1        0.0259
      9 C          16.9945   40.8010    9.2431 C.ar    1  UNL1        0.0589
     10 C          15.6325   40.5344    9.1442 C.ar    1  UNL1        0.0190
     11 CL         17.4745   44.2306    7.2414 Cl      1  UNL1       -0.0791
     12 CL         18.0316   39.7334   10.1633 Cl      1  UNL1       -0.0822
     13 C          14.4592   43.3842    5.5809 C.3     1  UNL1        0.2525
     14 O          14.4705   43.3299    6.9998 O.3     1  UNL1       -0.4704
     15 C          11.5521   39.3026    7.7845 C.ar    1  UNL1        0.2619
     16 N           9.5854   39.0777    7.1116 N.ar    1  UNL1       -0.1497
     17 N           9.7243   38.3193    8.1852 N.ar    1  UNL1       -0.0438
     18 N          10.9618   38.4413    8.6384 N.ar    1  UNL1       -0.0918
     19 N          10.7088   39.7108    6.8194 N.ar    1  UNL1       -0.1137
     20 C           8.3597   39.1767    6.3380 C.3     1  UNL1        0.1514
     21 C           8.6825   39.5054    4.8898 C.3     1  UNL1        0.0283
     22 C           9.4392   38.3003    2.8429 C.3     1  UNL1        0.0001
     23 C           9.6754   38.5041    4.3276 C.3     1  UNL1        0.0021
@<TRIPOS>BOND
     1    22    23    1
     2    23    21    1
     3    21    20    1
     4    20    16    1
     5    15    18   ar
     6    15     2    1
     7     1     5    1
     8     6    14    1
     9     6     7   ar
    10    13    14    1
    11     7    11    1
    12     8     9   ar
    13     9    12    1
    14    10     5   ar
    15    16    17   ar
    16    16    19   ar
    17     2     1   am
    18    15    19   ar
    19     1     3    2
    20     5     6   ar
    21     7     8   ar
    22     9    10   ar
    23    17    18   ar
    24     2     4    1
