@<TRIPOS>MOLECULE
MolPort-016-630-554 65535736 CSSS00159586613 MCULE-5089715295 PubChem-50985435 ZINC000065535736 ZINC65535736
 24 26 0 0 0
SMALL
GASTEIGER

@<TRIPOS>ATOM
      1 C          12.4086   39.8504    9.9042 C.ar    1  UNL1       -0.0073
      2 C          11.7158   38.8137    9.2385 C.ar    1  UNL1        0.0463
      3 C          11.5291   38.8927    7.8549 C.ar    1  UNL1        0.0158
      4 C          12.0567   39.9595    7.1259 C.ar    1  UNL1        0.0188
      5 C          12.7627   40.9806    7.7740 C.ar    1  UNL1        0.0652
      6 C          12.9412   40.9124    9.1615 C.ar    1  UNL1        0.0145
      7 C          11.8237   36.4830   10.2421 C.2     1  UNL1        0.2266
      8 C          11.1925   35.4993   11.1592 C.3     1  UNL1        0.0949
      9 N          11.1399   37.7018    9.9364 N.am    1  UNL1       -0.2842
     10 O          12.9331   36.2135    9.7098 O.2     1  UNL1       -0.2748
     11 H          10.2029   37.7831   10.2273 H       1  UNL1        0.1548
     12 C          12.6772   42.8464    6.1708 C.ar    1  UNL1        0.1022
     13 C          13.5371   43.8378    5.7383 C.ar    1  UNL1        0.1195
     14 C          14.6025   42.5710    7.0956 C.ar    1  UNL1        0.1492
     15 N          13.3523   42.0564    7.0257 N.ar    1  UNL1       -0.2888
     16 N          14.7410   43.6644    6.3207 N.ar    1  UNL1       -0.2248
     17 C          15.7430   41.9853    7.8298 C.ar    1  UNL1        0.0536
     18 C          15.5241   40.9521    8.7493 C.ar    1  UNL1        0.1018
     19 C          17.8278   40.9081    9.3222 C.ar    1  UNL1        0.0989
     20 C          18.0907   41.9505    8.4323 C.ar    1  UNL1        0.0208
     21 C          17.0404   42.4929    7.6910 C.ar    1  UNL1        0.0062
     22 N          16.5603   40.4362    9.4638 N.ar    1  UNL1       -0.2422
     23 C          13.8312   39.1458   11.8090 C.3     1  UNL1        0.0051
     24 C          12.5623   39.8667   11.3920 C.3     1  UNL1        0.0277
@<TRIPOS>BOND
     1    23    24    1
     2    24     1    1
     3     2     9    1
     4     2     3   ar
     5     8     7    1
     6     4     5   ar
     7     5    15    1
     8     6     1   ar
     9    13    16   ar
    10    14    17    1
    11    14    15   ar
    12    18    22   ar
    13    19    20   ar
    14    21    17   ar
    15     9     7   am
    16    15    12   ar
    17     1     2   ar
    18     7    10    2
    19     3     4   ar
    20     5     6   ar
    21    12    13   ar
    22    14    16   ar
    23    17    18   ar
    24    19    22   ar
    25    20    21   ar
    26     9    11    1
@<TRIPOS>MOLECULE
MolPort-016-630-554 65535736 CSSS00159586613 MCULE-5089715295 PubChem-50985435 ZINC000065535736 ZINC65535736
 24 26 0 0 0
SMALL
GASTEIGER

@<TRIPOS>ATOM
      1 C          10.4313   40.0546    7.7933 C.ar    1  UNL1       -0.0073
      2 C           9.7588   41.2082    8.2569 C.ar    1  UNL1        0.0463
      3 C          10.4339   42.1071    9.0885 C.ar    1  UNL1        0.0158
      4 C          11.7717   41.8965    9.4257 C.ar    1  UNL1        0.0188
      5 C          12.4525   40.7674    8.9539 C.ar    1  UNL1        0.0652
      6 C          11.7766   39.8575    8.1312 C.ar    1  UNL1        0.0145
      7 C           7.8859   41.8756    6.6764 C.2     1  UNL1        0.2266
      8 C           6.4206   41.8990    6.4328 C.3     1  UNL1        0.0949
      9 N           8.3819   41.4691    7.9552 N.am    1  UNL1       -0.2842
     10 O           8.6729   42.2555    5.7691 O.2     1  UNL1       -0.2748
     11 H           7.7281   41.3603    8.6831 H       1  UNL1        0.1548
     12 C          14.3037   39.7287   10.2001 C.ar    1  UNL1        0.1022
     13 C          15.6829   39.7087   10.1164 C.ar    1  UNL1        0.1195
     14 C          14.9395   41.0462    8.6196 C.ar    1  UNL1        0.1492
     15 N          13.8435   40.5684    9.2547 N.ar    1  UNL1       -0.2888
     16 N          16.0780   40.5325    9.1245 N.ar    1  UNL1       -0.2248
     17 C          14.9506   42.0848    7.5689 C.ar    1  UNL1        0.0536
     18 C          13.9057   42.1475    6.6388 C.ar    1  UNL1        0.1018
     19 C          14.9594   43.9465    5.5030 C.ar    1  UNL1        0.0989
     20 C          16.0326   43.9085    6.3944 C.ar    1  UNL1        0.0208
     21 C          16.0275   42.9679    7.4250 C.ar    1  UNL1        0.0062
     22 N          13.9282   43.0707    5.6401 N.ar    1  UNL1       -0.2422
     23 C           9.4748   37.7669    7.8021 C.3     1  UNL1        0.0051
     24 C           9.7365   39.0126    6.9754 C.3     1  UNL1        0.0277
@<TRIPOS>BOND
     1    23    24    1
     2    24     1    1
     3     2     9    1
     4     2     3   ar
     5     8     7    1
     6     4     5   ar
     7     5    15    1
     8     6     1   ar
     9    13    16   ar
    10    14    17    1
    11    14    15   ar
    12    18    22   ar
    13    19    20   ar
    14    21    17   ar
    15     9     7   am
    16    15    12   ar
    17     1     2   ar
    18     7    10    2
    19     3     4   ar
    20     5     6   ar
    21    12    13   ar
    22    14    16   ar
    23    17    18   ar
    24    19    22   ar
    25    20    21   ar
    26     9    11    1
@<TRIPOS>MOLECULE
MolPort-016-630-554 65535736 CSSS00159586613 MCULE-5089715295 PubChem-50985435 ZINC000065535736 ZINC65535736
 24 26 0 0 0
SMALL
GASTEIGER

@<TRIPOS>ATOM
      1 C          11.6818   40.7813    7.9748 C.ar    1  UNL1       -0.0073
      2 C          10.9305   40.5485    9.1492 C.ar    1  UNL1        0.0463
      3 C          11.5988   40.3069   10.3535 C.ar    1  UNL1        0.0158
      4 C          12.9930   40.3372   10.4115 C.ar    1  UNL1        0.0188
      5 C          13.7453   40.5879    9.2573 C.ar    1  UNL1        0.0652
      6 C          13.0805   40.8177    8.0461 C.ar    1  UNL1        0.0145
      7 C           8.6327   41.6240    9.2692 C.2     1  UNL1        0.2266
      8 C           7.1753   41.4611    9.0311 C.3     1  UNL1        0.0949
      9 N           9.4981   40.4915    9.1473 N.am    1  UNL1       -0.2842
     10 O           9.0836   42.7472    9.6183 O.2     1  UNL1       -0.2748
     11 H           9.0781   39.6058    9.0551 H       1  UNL1        0.1548
     12 C          15.9529   39.8883   10.0913 C.ar    1  UNL1        0.1022
     13 C          17.2729   40.1681    9.7932 C.ar    1  UNL1        0.1195
     14 C          16.0311   41.4114    8.5709 C.ar    1  UNL1        0.1492
     15 N          15.1786   40.6707    9.3173 N.ar    1  UNL1       -0.2888
     16 N          17.3189   41.1203    8.8393 N.ar    1  UNL1       -0.2248
     17 C          15.6537   42.4951    7.6403 C.ar    1  UNL1        0.0536
     18 C          16.3292   43.7209    7.6861 C.ar    1  UNL1        0.1018
     19 C          14.9271   44.6126    5.9903 C.ar    1  UNL1        0.0989
     20 C          14.2117   43.4162    5.9233 C.ar    1  UNL1        0.0208
     21 C          14.5750   42.3590    6.7582 C.ar    1  UNL1        0.0062
     22 N          15.9604   44.7407    6.8650 N.ar    1  UNL1       -0.2422
     23 C          11.0830   39.6692    5.8410 C.3     1  UNL1        0.0051
     24 C          11.0261   40.9572    6.6419 C.3     1  UNL1        0.0277
@<TRIPOS>BOND
     1    23    24    1
     2    24     1    1
     3     2     9    1
     4     2     3   ar
     5     8     7    1
     6     4     5   ar
     7     5    15    1
     8     6     1   ar
     9    13    16   ar
    10    14    17    1
    11    14    15   ar
    12    18    22   ar
    13    19    20   ar
    14    21    17   ar
    15     9     7   am
    16    15    12   ar
    17     1     2   ar
    18     7    10    2
    19     3     4   ar
    20     5     6   ar
    21    12    13   ar
    22    14    16   ar
    23    17    18   ar
    24    19    22   ar
    25    20    21   ar
    26     9    11    1
@<TRIPOS>MOLECULE
MolPort-016-630-554 65535736 CSSS00159586613 MCULE-5089715295 PubChem-50985435 ZINC000065535736 ZINC65535736
 24 26 0 0 0
SMALL
GASTEIGER

@<TRIPOS>ATOM
      1 C          10.2953   40.6022    7.5152 C.ar    1  UNL1       -0.0073
      2 C           9.7157   41.7916    8.0127 C.ar    1  UNL1        0.0463
      3 C          10.4313   42.5730    8.9250 C.ar    1  UNL1        0.0158
      4 C          11.7228   42.2116    9.3115 C.ar    1  UNL1        0.0188
      5 C          12.3134   41.0461    8.8077 C.ar    1  UNL1        0.0652
      6 C          11.5954   40.2533    7.9035 C.ar    1  UNL1        0.0145
      7 C           7.6744   43.2788    8.2824 C.2     1  UNL1        0.2266
      8 C           6.3991   43.7516    7.6847 C.3     1  UNL1        0.0949
      9 N           8.3884   42.2052    7.6627 N.am    1  UNL1       -0.2842
     10 O           8.0900   43.7988    9.3519 O.2     1  UNL1       -0.2748
     11 H           7.9339   41.7131    6.9413 H       1  UNL1        0.1548
     12 C          13.9868   39.7707   10.0852 C.ar    1  UNL1        0.1022
     13 C          15.3594   39.6127   10.0626 C.ar    1  UNL1        0.1195
     14 C          14.8293   41.0819    8.5989 C.ar    1  UNL1        0.1492
     15 N          13.6607   40.6927    9.1608 N.ar    1  UNL1       -0.2888
     16 N          15.8840   40.4330    9.1296 N.ar    1  UNL1       -0.2248
     17 C          14.9968   42.1577    7.6002 C.ar    1  UNL1        0.0536
     18 C          14.0317   42.3393    6.6020 C.ar    1  UNL1        0.1018
     19 C          15.2997   44.0940    5.6272 C.ar    1  UNL1        0.0989
     20 C          16.2976   43.9363    6.5900 C.ar    1  UNL1        0.0208
     21 C          16.1449   42.9586    7.5737 C.ar    1  UNL1        0.0062
     22 N          14.1980   43.2972    5.6506 N.ar    1  UNL1       -0.2422
     23 C           9.2101   38.3814    7.3181 C.3     1  UNL1        0.0051
     24 C           9.5453   39.6799    6.6073 C.3     1  UNL1        0.0277
@<TRIPOS>BOND
     1    23    24    1
     2    24     1    1
     3     2     9    1
     4     2     3   ar
     5     8     7    1
     6     4     5   ar
     7     5    15    1
     8     6     1   ar
     9    13    16   ar
    10    14    17    1
    11    14    15   ar
    12    18    22   ar
    13    19    20   ar
    14    21    17   ar
    15     9     7   am
    16    15    12   ar
    17     1     2   ar
    18     7    10    2
    19     3     4   ar
    20     5     6   ar
    21    12    13   ar
    22    14    16   ar
    23    17    18   ar
    24    19    22   ar
    25    20    21   ar
    26     9    11    1
@<TRIPOS>MOLECULE
MolPort-016-630-554 65535736 CSSS00159586613 MCULE-5089715295 PubChem-50985435 ZINC000065535736 ZINC65535736
 24 26 0 0 0
SMALL
GASTEIGER

@<TRIPOS>ATOM
      1 C          10.9235   41.0658    9.7107 C.ar    1  UNL1       -0.0073
      2 C          10.3864   40.2177    8.7155 C.ar    1  UNL1        0.0463
      3 C          11.2534   39.4944    7.8908 C.ar    1  UNL1        0.0158
      4 C          12.6353   39.5704    8.0713 C.ar    1  UNL1        0.0188
      5 C          13.1759   40.3917    9.0684 C.ar    1  UNL1        0.0652
      6 C          12.3118   41.1281    9.8886 C.ar    1  UNL1        0.0145
      7 C           8.2368   40.9287    7.5645 C.2     1  UNL1        0.2266
      8 C           6.8307   40.5755    7.2399 C.3     1  UNL1        0.0949
      9 N           8.9772   40.1105    8.4749 N.am    1  UNL1       -0.2842
     10 O           8.7467   41.9684    7.0688 O.2     1  UNL1       -0.2748
     11 H           8.4815   39.4218    8.9740 H       1  UNL1        0.1548
     12 C          15.2531   39.6381   10.1530 C.ar    1  UNL1        0.1022
     13 C          16.6055   39.8829   10.0099 C.ar    1  UNL1        0.1195
     14 C          15.5465   41.1539    8.6516 C.ar    1  UNL1        0.1492
     15 N          14.5942   40.4377    9.2943 N.ar    1  UNL1       -0.2888
     16 N          16.7865   40.8305    9.0677 N.ar    1  UNL1       -0.2248
     17 C          15.3078   42.2440    7.6834 C.ar    1  UNL1        0.0536
     18 C          16.1621   43.3533    7.6572 C.ar    1  UNL1        0.1018
     19 C          14.8575   44.3793    5.9594 C.ar    1  UNL1        0.0989
     20 C          13.9676   43.3042    5.9642 C.ar    1  UNL1        0.0208
     21 C          14.1933   42.2385    6.8360 C.ar    1  UNL1        0.0062
     22 N          15.9257   44.3835    6.8010 N.ar    1  UNL1       -0.2422
     23 C          10.3313   43.3999   10.3019 C.3     1  UNL1        0.0051
     24 C          10.0509   41.9313   10.5632 C.3     1  UNL1        0.0277
@<TRIPOS>BOND
     1    23    24    1
     2    24     1    1
     3     2     9    1
     4     2     3   ar
     5     8     7    1
     6     4     5   ar
     7     5    15    1
     8     6     1   ar
     9    13    16   ar
    10    14    17    1
    11    14    15   ar
    12    18    22   ar
    13    19    20   ar
    14    21    17   ar
    15     9     7   am
    16    15    12   ar
    17     1     2   ar
    18     7    10    2
    19     3     4   ar
    20     5     6   ar
    21    12    13   ar
    22    14    16   ar
    23    17    18   ar
    24    19    22   ar
    25    20    21   ar
    26     9    11    1
@<TRIPOS>MOLECULE
MolPort-016-630-554 65535736 CSSS00159586613 MCULE-5089715295 PubChem-50985435 ZINC000065535736 ZINC65535736
 24 26 0 0 0
SMALL
GASTEIGER

@<TRIPOS>ATOM
      1 C           9.0732   42.9219    8.9003 C.ar    1  UNL1       -0.0073
      2 C           9.3550   42.0666    7.8107 C.ar    1  UNL1        0.0463
      3 C           8.3422   41.7683    6.8940 C.ar    1  UNL1        0.0158
      4 C           7.0756   42.3404    7.0226 C.ar    1  UNL1        0.0188
      5 C           6.7932   43.2055    8.0870 C.ar    1  UNL1        0.0652
      6 C           7.8008   43.4971    9.0150 C.ar    1  UNL1        0.0145
      7 C          10.9466   40.0987    8.0234 C.2     1  UNL1        0.2266
      8 C          12.2320   39.4932    7.5894 C.3     1  UNL1        0.0949
      9 N          10.6321   41.4393    7.6357 N.am    1  UNL1       -0.2842
     10 O          10.1683   39.4407    8.7639 O.2     1  UNL1       -0.2748
     11 H          11.3468   41.9714    7.2170 H       1  UNL1        0.1548
     12 C           5.1481   44.9508    7.5334 C.ar    1  UNL1        0.1022
     13 C           3.8122   45.1892    7.7940 C.ar    1  UNL1        0.1195
     14 C           4.3972   43.4233    8.8528 C.ar    1  UNL1        0.1492
     15 N           5.5079   43.8381    8.1992 N.ar    1  UNL1       -0.2888
     16 N           3.3440   44.2300    8.6182 N.ar    1  UNL1       -0.2248
     17 C           4.3196   42.2952    9.8037 C.ar    1  UNL1        0.0536
     18 C           5.2245   42.2178   10.8696 C.ar    1  UNL1        0.1018
     19 C           4.2979   40.1471   11.5698 C.ar    1  UNL1        0.0989
     20 C           3.3898   40.1711   10.5103 C.ar    1  UNL1        0.0208
     21 C           3.4091   41.2472    9.6224 C.ar    1  UNL1        0.0062
     22 N           5.1913   41.1605   11.7248 N.ar    1  UNL1       -0.2422
     23 C          10.0087   42.1752   11.0719 C.3     1  UNL1        0.0051
     24 C          10.0882   43.2068    9.9614 C.3     1  UNL1        0.0277
@<TRIPOS>BOND
     1    23    24    1
     2    24     1    1
     3     2     9    1
     4     2     3   ar
     5     8     7    1
     6     4     5   ar
     7     5    15    1
     8     6     1   ar
     9    13    16   ar
    10    14    17    1
    11    14    15   ar
    12    18    22   ar
    13    19    20   ar
    14    21    17   ar
    15     9     7   am
    16    15    12   ar
    17     1     2   ar
    18     7    10    2
    19     3     4   ar
    20     5     6   ar
    21    12    13   ar
    22    14    16   ar
    23    17    18   ar
    24    19    22   ar
    25    20    21   ar
    26     9    11    1
@<TRIPOS>MOLECULE
MolPort-016-630-554 65535736 CSSS00159586613 MCULE-5089715295 PubChem-50985435 ZINC000065535736 ZINC65535736
 24 26 0 0 0
SMALL
GASTEIGER

@<TRIPOS>ATOM
      1 C           8.3257   41.3753    7.2825 C.ar    1  UNL1       -0.0073
      2 C           9.3668   41.7682    8.1542 C.ar    1  UNL1        0.0463
      3 C           9.1662   42.8499    9.0173 C.ar    1  UNL1        0.0158
      4 C           7.9381   43.5119    9.0543 C.ar    1  UNL1        0.0188
      5 C           6.8937   43.1163    8.2094 C.ar    1  UNL1        0.0652
      6 C           7.0942   42.0416    7.3340 C.ar    1  UNL1        0.0145
      7 C          11.7301   41.4733    7.2715 C.2     1  UNL1        0.2266
      8 C          13.0794   40.9004    7.5127 C.3     1  UNL1        0.0949
      9 N          10.6530   41.1353    8.1503 N.am    1  UNL1       -0.2842
     10 O          11.5394   42.2150    6.2713 O.2     1  UNL1       -0.2748
     11 H          10.8069   40.4134    8.8018 H       1  UNL1        0.1548
     12 C           5.2825   44.8730    7.5957 C.ar    1  UNL1        0.1022
     13 C           3.9402   45.1224    7.8096 C.ar    1  UNL1        0.1195
     14 C           4.4747   43.3547    8.8920 C.ar    1  UNL1        0.1492
     15 N           5.6104   43.7592    8.2760 N.ar    1  UNL1       -0.2888
     16 N           3.4366   44.1690    8.6196 N.ar    1  UNL1       -0.2248
     17 C           4.3557   42.2298    9.8423 C.ar    1  UNL1        0.0536
     18 C           5.2645   42.1118   10.9011 C.ar    1  UNL1        0.1018
     19 C           4.2545   40.0821   11.6062 C.ar    1  UNL1        0.0989
     20 C           3.3402   40.1468   10.5538 C.ar    1  UNL1        0.0208
     21 C           3.3993   41.2223    9.6669 C.ar    1  UNL1        0.0062
     22 N           5.1921   41.0557   11.7554 N.ar    1  UNL1       -0.2422
     23 C           7.4315   39.2278    6.4242 C.3     1  UNL1        0.0051
     24 C           8.5104   40.2849    6.2755 C.3     1  UNL1        0.0277
@<TRIPOS>BOND
     1    23    24    1
     2    24     1    1
     3     2     9    1
     4     2     3   ar
     5     8     7    1
     6     4     5   ar
     7     5    15    1
     8     6     1   ar
     9    13    16   ar
    10    14    17    1
    11    14    15   ar
    12    18    22   ar
    13    19    20   ar
    14    21    17   ar
    15     9     7   am
    16    15    12   ar
    17     1     2   ar
    18     7    10    2
    19     3     4   ar
    20     5     6   ar
    21    12    13   ar
    22    14    16   ar
    23    17    18   ar
    24    19    22   ar
    25    20    21   ar
    26     9    11    1
@<TRIPOS>MOLECULE
MolPort-016-630-554 65535736 CSSS00159586613 MCULE-5089715295 PubChem-50985435 ZINC000065535736 ZINC65535736
 24 26 0 0 0
SMALL
GASTEIGER

@<TRIPOS>ATOM
      1 C           9.2995   40.9522    5.8539 C.ar    1  UNL1       -0.0073
      2 C           8.6335   39.7254    5.6321 C.ar    1  UNL1        0.0463
      3 C           7.3245   39.5627    6.0962 C.ar    1  UNL1        0.0158
      4 C           6.6606   40.6117    6.7341 C.ar    1  UNL1        0.0188
      5 C           7.3052   41.8378    6.9396 C.ar    1  UNL1        0.0652
      6 C           8.6208   42.0012    6.4880 C.ar    1  UNL1        0.0145
      7 C           9.4442   38.4608    3.5840 C.2     1  UNL1        0.2266
      8 C          10.3112   37.3723    3.0638 C.3     1  UNL1        0.0949
      9 N           9.2693   38.6091    4.9961 N.am    1  UNL1       -0.2842
     10 O           8.8383   39.2130    2.7754 O.2     1  UNL1       -0.2748
     11 H           9.6116   37.8900    5.5749 H       1  UNL1        0.1548
     12 C           5.9199   43.8714    6.8709 C.ar    1  UNL1        0.1022
     13 C           5.2933   44.6901    7.7910 C.ar    1  UNL1        0.1195
     14 C           6.4039   43.2055    8.8610 C.ar    1  UNL1        0.1492
     15 N           6.6130   42.9391    7.5502 N.ar    1  UNL1       -0.2888
     16 N           5.5961   44.2695    9.0360 N.ar    1  UNL1       -0.2248
     17 C           7.0429   42.5151   10.0002 C.ar    1  UNL1        0.0536
     18 C           6.2631   41.7592   10.8842 C.ar    1  UNL1        0.1018
     19 C           8.1630   41.2754   12.2234 C.ar    1  UNL1        0.0989
     20 C           8.9763   42.0351   11.3813 C.ar    1  UNL1        0.0208
     21 C           8.4087   42.6614   10.2712 C.ar    1  UNL1        0.0062
     22 N           6.8338   41.1565   11.9619 N.ar    1  UNL1       -0.2422
     23 C          11.6579   40.7782    6.5997 C.3     1  UNL1        0.0051
     24 C          10.7283   41.1555    5.4608 C.3     1  UNL1        0.0277
@<TRIPOS>BOND
     1    23    24    1
     2    24     1    1
     3     2     9    1
     4     2     3   ar
     5     8     7    1
     6     4     5   ar
     7     5    15    1
     8     6     1   ar
     9    13    16   ar
    10    14    17    1
    11    14    15   ar
    12    18    22   ar
    13    19    20   ar
    14    21    17   ar
    15     9     7   am
    16    15    12   ar
    17     1     2   ar
    18     7    10    2
    19     3     4   ar
    20     5     6   ar
    21    12    13   ar
    22    14    16   ar
    23    17    18   ar
    24    19    22   ar
    25    20    21   ar
    26     9    11    1
@<TRIPOS>MOLECULE
MolPort-016-630-554 65535736 CSSS00159586613 MCULE-5089715295 PubChem-50985435 ZINC000065535736 ZINC65535736
 24 26 0 0 0
SMALL
GASTEIGER

@<TRIPOS>ATOM
      1 C           9.0700   41.3457    6.5392 C.ar    1  UNL1       -0.0073
      2 C           8.4988   40.1504    6.0463 C.ar    1  UNL1        0.0463
      3 C           7.1143   39.9704    6.1225 C.ar    1  UNL1        0.0158
      4 C           6.2939   40.9748    6.6385 C.ar    1  UNL1        0.0188
      5 C           6.8489   42.1710    7.1098 C.ar    1  UNL1        0.0652
      6 C           8.2365   42.3506    7.0475 C.ar    1  UNL1        0.0145
      7 C           9.5108   38.8292    4.1276 C.2     1  UNL1        0.2266
      8 C          10.5273   37.8277    3.7142 C.3     1  UNL1        0.0949
      9 N           9.2922   39.0792    5.5191 N.am    1  UNL1       -0.2842
     10 O           8.8225   39.4148    3.2500 O.2     1  UNL1       -0.2748
     11 H           9.7190   38.4693    6.1634 H       1  UNL1        0.1548
     12 C           5.9357   44.4559    7.0458 C.ar    1  UNL1        0.1022
     13 C           4.9398   45.1570    7.6986 C.ar    1  UNL1        0.1195
     14 C           5.0681   43.2060    8.5699 C.ar    1  UNL1        0.1492
     15 N           6.0083   43.2301    7.5962 N.ar    1  UNL1       -0.2888
     16 N           4.3968   44.3714    8.6507 N.ar    1  UNL1       -0.2248
     17 C           4.8366   42.1042    9.5266 C.ar    1  UNL1        0.0536
     18 C           3.6867   41.3130    9.4144 C.ar    1  UNL1        0.1018
     19 C           4.2855   40.0816   11.3540 C.ar    1  UNL1        0.0989
     20 C           5.4339   40.8576   11.5179 C.ar    1  UNL1        0.0208
     21 C           5.7026   41.8761   10.6028 C.ar    1  UNL1        0.0062
     22 N           3.4408   40.3250   10.3164 N.ar    1  UNL1       -0.2422
     23 C          11.2743   40.3824    5.9378 C.3     1  UNL1        0.0051
     24 C          10.5503   41.5587    6.5669 C.3     1  UNL1        0.0277
@<TRIPOS>BOND
     1    23    24    1
     2    24     1    1
     3     2     9    1
     4     2     3   ar
     5     8     7    1
     6     4     5   ar
     7     5    15    1
     8     6     1   ar
     9    13    16   ar
    10    14    17    1
    11    14    15   ar
    12    18    22   ar
    13    19    20   ar
    14    21    17   ar
    15     9     7   am
    16    15    12   ar
    17     1     2   ar
    18     7    10    2
    19     3     4   ar
    20     5     6   ar
    21    12    13   ar
    22    14    16   ar
    23    17    18   ar
    24    19    22   ar
    25    20    21   ar
    26     9    11    1
@<TRIPOS>MOLECULE
MolPort-016-630-554 65535736 CSSS00159586613 MCULE-5089715295 PubChem-50985435 ZINC000065535736 ZINC65535736
 24 26 0 0 0
SMALL
GASTEIGER

@<TRIPOS>ATOM
      1 C          15.5277   40.6469    9.0633 C.ar    1  UNL1       -0.0073
      2 C          14.9870   41.5135    8.0863 C.ar    1  UNL1        0.0463
      3 C          13.7293   41.2338    7.5430 C.ar    1  UNL1        0.0158
      4 C          12.9906   40.1363    7.9878 C.ar    1  UNL1        0.0188
      5 C          13.5091   39.2840    8.9705 C.ar    1  UNL1        0.0652
      6 C          14.7741   39.5529    9.5084 C.ar    1  UNL1        0.0145
      7 C          15.2603   43.4901    6.5148 C.2     1  UNL1        0.2266
      8 C          15.9833   44.7569    6.2326 C.3     1  UNL1        0.0949
      9 N          15.7052   42.6466    7.5812 N.am    1  UNL1       -0.2842
     10 O          14.2913   43.1516    5.7846 O.2     1  UNL1       -0.2748
     11 H          16.5702   42.8606    7.9998 H       1  UNL1        0.1548
     12 C          11.4813   38.2873    9.9469 C.ar    1  UNL1        0.1022
     13 C          11.0191   37.0131   10.2155 C.ar    1  UNL1        0.1195
     14 C          13.0163   36.8570    9.4612 C.ar    1  UNL1        0.1492
     15 N          12.7353   38.1812    9.4703 N.ar    1  UNL1       -0.2888
     16 N          11.9812   36.1194    9.9082 N.ar    1  UNL1       -0.2248
     17 C          14.3173   36.2476    9.1164 C.ar    1  UNL1        0.0536
     18 C          14.4441   34.8538    9.0688 C.ar    1  UNL1        0.1018
     19 C          16.7598   35.0324    8.5768 C.ar    1  UNL1        0.0989
     20 C          16.6861   36.4249    8.6336 C.ar    1  UNL1        0.0208
     21 C          15.4601   37.0301    8.9119 C.ar    1  UNL1        0.0062
     22 N          15.6477   34.2815    8.7968 N.ar    1  UNL1       -0.2422
     23 C          17.2741   39.7070   10.5516 C.3     1  UNL1        0.0051
     24 C          16.9037   40.8432    9.6159 C.3     1  UNL1        0.0277
@<TRIPOS>BOND
     1    23    24    1
     2    24     1    1
     3     2     9    1
     4     2     3   ar
     5     8     7    1
     6     4     5   ar
     7     5    15    1
     8     6     1   ar
     9    13    16   ar
    10    14    17    1
    11    14    15   ar
    12    18    22   ar
    13    19    20   ar
    14    21    17   ar
    15     9     7   am
    16    15    12   ar
    17     1     2   ar
    18     7    10    2
    19     3     4   ar
    20     5     6   ar
    21    12    13   ar
    22    14    16   ar
    23    17    18   ar
    24    19    22   ar
    25    20    21   ar
    26     9    11    1
