@<TRIPOS>MOLECULE
Molport-052-054-894
 26 28 0 0 0
SMALL
GASTEIGER

@<TRIPOS>ATOM
      1 C          11.5235   40.7965    8.5992 C.ar    1  UNL1        0.1545
      2 C          11.8076   41.8560    6.4930 C.ar    1  UNL1        0.1361
      3 C          10.6408   41.2357    6.0245 C.ar    1  UNL1        0.0492
      4 C           9.9474   40.3756    6.8812 C.ar    1  UNL1        0.0635
      5 C           8.6795   39.7199    6.4348 C.3     1  UNL1        0.0522
      6 N          12.2064   41.6362    7.7736 N.ar    1  UNL1       -0.2145
      7 N          10.3958   40.1847    8.1495 N.ar    1  UNL1       -0.2335
      8 C          10.7762   40.7452   11.0232 C.3     1  UNL1        0.0256
      9 C          11.9509   40.5959   10.0322 C.3     1  UNL1        0.1171
     10 C          11.7698   38.1501   10.1628 C.3     1  UNL1        0.0902
     11 N          12.6822   39.3086   10.1614 N.3     1  UNL1       -0.2614
     12 C          13.7749   39.1331    9.1798 C.3     1  UNL1        0.1195
     13 C          15.0482   38.7916    9.8903 C.ar    1  UNL1        0.0818
     14 C          15.0957   38.0076   11.0408 C.ar    1  UNL1        0.0526
     15 C          17.2604   38.8655   10.2634 C.ar    1  UNL1        0.0883
     16 C          18.6937   39.1761    9.9990 C.3     1  UNL1        0.0594
     17 N          16.2506   39.2622    9.4601 N.ar    1  UNL1       -0.2456
     18 S          16.7036   37.8987   11.5205 S.2     1  UNL1       -0.0705
     19 N          12.5540   42.7720    5.6785 N.pl3   1  UNL1       -0.2781
     20 H          12.1972   42.9915    4.7876 H       1  UNL1        0.1555
     21 C          13.7850   43.3881    6.0778 C.ar    1  UNL1        0.1643
     22 C          15.4243   44.9188    6.1406 C.ar    1  UNL1        0.1030
     23 C          15.9985   43.9384    6.9417 C.ar    1  UNL1        0.0293
     24 C          17.3250   44.0336    7.6172 C.3     1  UNL1        0.0399
     25 N          14.1957   44.6041    5.6520 N.ar    1  UNL1       -0.2228
     26 S          14.9338   42.6397    7.0532 S.2     1  UNL1       -0.0557
@<TRIPOS>BOND
     1     9     8    1
     2     9    11    1
     3     9     1    1
     4    10    11    1
     5    12    11    1
     6    12    13    1
     7    13    17   ar
     8    14    18   ar
     9    15    18   ar
    10    16    15    1
    11     1     7   ar
    12     2     6   ar
    13     2    19    1
    14    21    26   ar
    15    22    25   ar
    16    23    26   ar
    17    24    23    1
    18     3     4   ar
    19     5     4    1
    20    19    21    1
    21    13    14   ar
    22    15    17   ar
    23     1     6   ar
    24     2     3   ar
    25    21    25   ar
    26    22    23   ar
    27     4     7   ar
    28    19    20    1
@<TRIPOS>MOLECULE
Molport-052-054-894
 26 28 0 0 0
SMALL
GASTEIGER

@<TRIPOS>ATOM
      1 C          10.3174   40.5230    6.7858 C.ar    1  UNL1        0.1545
      2 C          12.1484   42.0173    6.5540 C.ar    1  UNL1        0.1361
      3 C          12.5003   41.7925    7.8924 C.ar    1  UNL1        0.0492
      4 C          11.7109   40.9294    8.6582 C.ar    1  UNL1        0.0635
      5 C          12.0694   40.6339   10.0798 C.3     1  UNL1        0.0522
      6 N          11.0792   41.3613    6.0307 N.ar    1  UNL1       -0.2145
      7 N          10.6472   40.3064    8.0867 N.ar    1  UNL1       -0.2335
      8 C           8.8035   38.4969    6.9851 C.3     1  UNL1        0.0256
      9 C           9.1604   39.7663    6.1816 C.3     1  UNL1        0.1171
     10 C           6.7221   40.0420    6.2854 C.3     1  UNL1        0.0902
     11 N           8.0118   40.6869    5.9770 N.3     1  UNL1       -0.2614
     12 C           8.1459   41.9848    6.6741 C.3     1  UNL1        0.1195
     13 C           7.1857   42.0486    7.8215 C.ar    1  UNL1        0.0818
     14 C           7.3771   41.3618    9.0183 C.ar    1  UNL1        0.0526
     15 C           5.3001   42.6624    8.8733 C.ar    1  UNL1        0.0883
     16 C           4.0241   43.3984    9.0990 C.3     1  UNL1        0.0594
     17 N           6.0350   42.7716    7.7463 N.ar    1  UNL1       -0.2456
     18 S           6.0598   41.6865   10.0116 S.2     1  UNL1       -0.0705
     19 N          12.9287   42.8684    5.7017 N.pl3   1  UNL1       -0.2781
     20 H          12.5886   43.0490    4.7956 H       1  UNL1        0.1555
     21 C          14.1711   43.4725    6.0838 C.ar    1  UNL1        0.1643
     22 C          15.8371   44.9753    6.1062 C.ar    1  UNL1        0.1030
     23 C          16.3954   44.0053    6.9307 C.ar    1  UNL1        0.0293
     24 C          17.7245   44.0940    7.6019 C.3     1  UNL1        0.0399
     25 N          14.6023   44.6701    5.6272 N.ar    1  UNL1       -0.2228
     26 S          15.3083   42.7286    7.0761 S.2     1  UNL1       -0.0557
@<TRIPOS>BOND
     1     9     8    1
     2     9    11    1
     3     9     1    1
     4    10    11    1
     5    12    11    1
     6    12    13    1
     7    13    17   ar
     8    14    18   ar
     9    15    18   ar
    10    16    15    1
    11     1     7   ar
    12     2     6   ar
    13     2    19    1
    14    21    26   ar
    15    22    25   ar
    16    23    26   ar
    17    24    23    1
    18     3     4   ar
    19     5     4    1
    20    19    21    1
    21    13    14   ar
    22    15    17   ar
    23     1     6   ar
    24     2     3   ar
    25    21    25   ar
    26    22    23   ar
    27     4     7   ar
    28    19    20    1
@<TRIPOS>MOLECULE
Molport-052-054-894
 26 28 0 0 0
SMALL
GASTEIGER

@<TRIPOS>ATOM
      1 C          10.7132   41.8057    8.9440 C.ar    1  UNL1        0.1545
      2 C          11.6797   41.7714    6.7752 C.ar    1  UNL1        0.1361
      3 C          11.0448   40.5493    6.5124 C.ar    1  UNL1        0.0492
      4 C          10.2588   39.9722    7.5143 C.ar    1  UNL1        0.0635
      5 C           9.5356   38.6870    7.2653 C.3     1  UNL1        0.0522
      6 N          11.4807   42.3769    7.9756 N.ar    1  UNL1       -0.2145
      7 N          10.1010   40.6167    8.6999 N.ar    1  UNL1       -0.2335
      8 C          10.0218   43.9759   10.0616 C.3     1  UNL1        0.0256
      9 C          10.4637   42.5091   10.2553 C.3     1  UNL1        0.1171
     10 C          10.2103   41.0414   12.2080 C.3     1  UNL1        0.0902
     11 N           9.5264   41.7068   11.0838 N.3     1  UNL1       -0.2614
     12 C           8.3350   42.4536   11.5434 C.3     1  UNL1        0.1195
     13 C           7.1020   41.8850   10.9115 C.ar    1  UNL1        0.0818
     14 C           6.8512   41.9361    9.5421 C.ar    1  UNL1        0.0526
     15 C           5.0893   40.8916   10.8953 C.ar    1  UNL1        0.0883
     16 C           3.9082   40.1602   11.4347 C.3     1  UNL1        0.0594
     17 N           6.1248   41.3019   11.6579 N.ar    1  UNL1       -0.2456
     18 S           5.3573   41.2147    9.2677 S.2     1  UNL1       -0.0705
     19 N          12.4784   42.4347    5.7844 N.pl3   1  UNL1       -0.2781
     20 H          12.1869   42.3793    4.8457 H       1  UNL1        0.1555
     21 C          13.6729   43.1726    6.0726 C.ar    1  UNL1        0.1643
     22 C          15.1819   44.8280    5.9414 C.ar    1  UNL1        0.1030
     23 C          15.8737   43.9558    6.7739 C.ar    1  UNL1        0.0293
     24 C          17.2197   44.2031    7.3672 C.3     1  UNL1        0.0399
     25 N          13.9606   44.3835    5.5437 N.ar    1  UNL1       -0.2228
     26 S          14.9263   42.5887    7.0314 S.2     1  UNL1       -0.0557
@<TRIPOS>BOND
     1     9     8    1
     2     9    11    1
     3     9     1    1
     4    10    11    1
     5    12    11    1
     6    12    13    1
     7    13    17   ar
     8    14    18   ar
     9    15    18   ar
    10    16    15    1
    11     1     7   ar
    12     2     6   ar
    13     2    19    1
    14    21    26   ar
    15    22    25   ar
    16    23    26   ar
    17    24    23    1
    18     3     4   ar
    19     5     4    1
    20    19    21    1
    21    13    14   ar
    22    15    17   ar
    23     1     6   ar
    24     2     3   ar
    25    21    25   ar
    26    22    23   ar
    27     4     7   ar
    28    19    20    1
@<TRIPOS>MOLECULE
Molport-052-054-894
 26 28 0 0 0
SMALL
GASTEIGER

@<TRIPOS>ATOM
      1 C          10.6666   42.0035   10.1239 C.ar    1  UNL1        0.1545
      2 C          12.1974   41.8628    8.3138 C.ar    1  UNL1        0.1361
      3 C          12.9186   40.8765    9.0015 C.ar    1  UNL1        0.0492
      4 C          12.4850   40.4924   10.2739 C.ar    1  UNL1        0.0635
      5 C          13.2038   39.4197   11.0286 C.3     1  UNL1        0.0522
      6 N          11.0796   42.3850    8.8841 N.ar    1  UNL1       -0.2145
      7 N          11.3654   41.0538   10.8005 N.ar    1  UNL1       -0.2335
      8 C           9.1326   44.0168   10.2981 C.3     1  UNL1        0.0256
      9 C           9.3995   42.5576   10.7269 C.3     1  UNL1        0.1171
     10 C           7.1752   41.7871   11.4274 C.3     1  UNL1        0.0902
     11 N           8.2674   41.6360   10.4482 N.3     1  UNL1       -0.2614
     12 C           7.7603   41.7040    9.0602 C.3     1  UNL1        0.1195
     13 C           6.3257   42.1337    9.0622 C.ar    1  UNL1        0.0818
     14 C           5.9211   43.4500    8.8512 C.ar    1  UNL1        0.0526
     15 C           4.1110   41.8523    9.2959 C.ar    1  UNL1        0.0883
     16 C           2.8245   41.1197    9.4661 C.3     1  UNL1        0.0594
     17 N           5.3192   41.2502    9.3045 N.ar    1  UNL1       -0.2456
     18 S           4.2440   43.4948    8.9644 S.2     1  UNL1       -0.0705
     19 N          12.5683   42.2856    6.9935 N.pl3   1  UNL1       -0.2781
     20 H          11.9837   42.0249    6.2455 H       1  UNL1        0.1555
     21 C          13.7346   43.0629    6.6931 C.ar    1  UNL1        0.1643
     22 C          14.9821   44.6622    5.7339 C.ar    1  UNL1        0.1030
     23 C          15.9828   43.9605    6.3962 C.ar    1  UNL1        0.0293
     24 C          17.4322   44.3128    6.4056 C.3     1  UNL1        0.0399
     25 N          13.7321   44.1528    5.8926 N.ar    1  UNL1       -0.2228
     26 S          15.2842   42.6673    7.2160 S.2     1  UNL1       -0.0557
@<TRIPOS>BOND
     1     9     8    1
     2     9    11    1
     3     9     1    1
     4    10    11    1
     5    12    11    1
     6    12    13    1
     7    13    17   ar
     8    14    18   ar
     9    15    18   ar
    10    16    15    1
    11     1     7   ar
    12     2     6   ar
    13     2    19    1
    14    21    26   ar
    15    22    25   ar
    16    23    26   ar
    17    24    23    1
    18     3     4   ar
    19     5     4    1
    20    19    21    1
    21    13    14   ar
    22    15    17   ar
    23     1     6   ar
    24     2     3   ar
    25    21    25   ar
    26    22    23   ar
    27     4     7   ar
    28    19    20    1
@<TRIPOS>MOLECULE
Molport-052-054-894
 26 28 0 0 0
SMALL
GASTEIGER

@<TRIPOS>ATOM
      1 C          11.4946   40.0748    9.6378 C.ar    1  UNL1        0.1545
      2 C          11.8732   41.7181    7.9657 C.ar    1  UNL1        0.1361
      3 C          11.1508   42.6523    8.7214 C.ar    1  UNL1        0.0492
      4 C          10.5920   42.2448    9.9365 C.ar    1  UNL1        0.0635
      5 C           9.8432   43.2172   10.7912 C.3     1  UNL1        0.0522
      6 N          12.0433   40.4608    8.4532 N.ar    1  UNL1       -0.2145
      7 N          10.7856   40.9725   10.3723 N.ar    1  UNL1       -0.2335
      8 C          11.0514   37.5949    9.3369 C.3     1  UNL1        0.0256
      9 C          11.7284   38.6901   10.1893 C.3     1  UNL1        0.1171
     10 C          13.7353   39.3604   11.4362 C.3     1  UNL1        0.0902
     11 N          13.1838   38.4724   10.3962 N.3     1  UNL1       -0.2614
     12 C          13.5552   37.0613   10.6397 C.3     1  UNL1        0.1195
     13 C          14.7417   36.6948    9.8026 C.ar    1  UNL1        0.0818
     14 C          14.6375   36.1154    8.5400 C.ar    1  UNL1        0.0526
     15 C          16.9281   36.4525    9.3561 C.ar    1  UNL1        0.0883
     16 C          18.3989   36.5938    9.5497 C.3     1  UNL1        0.0594
     17 N          16.0131   36.8837   10.2500 N.ar    1  UNL1       -0.2456
     18 S          16.1962   35.8443    7.9705 S.2     1  UNL1       -0.0705
     19 N          12.4975   42.0739    6.7235 N.pl3   1  UNL1       -0.2781
     20 H          12.0905   41.7398    5.8916 H       1  UNL1        0.1555
     21 C          13.6750   42.8839    6.6151 C.ar    1  UNL1        0.1643
     22 C          14.9952   44.5575    5.9148 C.ar    1  UNL1        0.1030
     23 C          15.9235   43.8282    6.6487 C.ar    1  UNL1        0.0293
     24 C          17.3537   44.1981    6.8553 C.3     1  UNL1        0.0399
     25 N          13.7460   44.0226    5.8891 N.ar    1  UNL1       -0.2228
     26 S          15.1585   42.4761    7.2963 S.2     1  UNL1       -0.0557
@<TRIPOS>BOND
     1     9     8    1
     2     9    11    1
     3     9     1    1
     4    10    11    1
     5    12    11    1
     6    12    13    1
     7    13    17   ar
     8    14    18   ar
     9    15    18   ar
    10    16    15    1
    11     1     7   ar
    12     2     6   ar
    13     2    19    1
    14    21    26   ar
    15    22    25   ar
    16    23    26   ar
    17    24    23    1
    18     3     4   ar
    19     5     4    1
    20    19    21    1
    21    13    14   ar
    22    15    17   ar
    23     1     6   ar
    24     2     3   ar
    25    21    25   ar
    26    22    23   ar
    27     4     7   ar
    28    19    20    1
@<TRIPOS>MOLECULE
Molport-052-054-894
 26 28 0 0 0
SMALL
GASTEIGER

@<TRIPOS>ATOM
      1 C          10.3461   40.9513    8.6950 C.ar    1  UNL1        0.1545
      2 C          11.3033   41.5917    6.6182 C.ar    1  UNL1        0.1361
      3 C          10.2203   41.0131    5.9415 C.ar    1  UNL1        0.0492
      4 C           9.2184   40.3874    6.6893 C.ar    1  UNL1        0.0635
      5 C           8.0280   39.7876    6.0110 C.3     1  UNL1        0.0522
      6 N          11.3273   41.5636    7.9769 N.ar    1  UNL1       -0.2145
      7 N           9.2969   40.3806    8.0457 N.ar    1  UNL1       -0.2335
      8 C          11.6673   40.3827   10.7850 C.3     1  UNL1        0.0256
      9 C          10.3612   40.9661   10.2036 C.3     1  UNL1        0.1171
     10 C          10.2980   43.3623    9.6687 C.3     1  UNL1        0.0902
     11 N          10.0465   42.3331   10.6944 N.3     1  UNL1       -0.2614
     12 C           8.6928   42.4701   11.2750 C.3     1  UNL1        0.1195
     13 C           7.6622   42.3788   10.1923 C.ar    1  UNL1        0.0818
     14 C           6.6841   41.3877   10.1487 C.ar    1  UNL1        0.0526
     15 C           6.6574   42.9741    8.2754 C.ar    1  UNL1        0.0883
     16 C           6.3564   43.8078    7.0774 C.3     1  UNL1        0.0594
     17 N           7.6418   43.2587    9.1541 N.ar    1  UNL1       -0.2456
     18 S           5.7627   41.6379    8.7646 S.2     1  UNL1       -0.0705
     19 N          12.3530   42.2745    5.9171 N.pl3   1  UNL1       -0.2781
     20 H          12.1596   42.6094    5.0117 H       1  UNL1        0.1555
     21 C          13.6645   42.5008    6.4492 C.ar    1  UNL1        0.1643
     22 C          15.4822   42.1687    7.7221 C.ar    1  UNL1        0.1030
     23 C          15.8323   43.3807    7.1383 C.ar    1  UNL1        0.0293
     24 C          17.1097   44.1176    7.3625 C.3     1  UNL1        0.0399
     25 N          14.2688   41.6869    7.3442 N.ar    1  UNL1       -0.2228
     26 S          14.5917   43.8628    6.1081 S.2     1  UNL1       -0.0557
@<TRIPOS>BOND
     1     9     8    1
     2     9    11    1
     3     9     1    1
     4    10    11    1
     5    12    11    1
     6    12    13    1
     7    13    17   ar
     8    14    18   ar
     9    15    18   ar
    10    16    15    1
    11     1     7   ar
    12     2     6   ar
    13     2    19    1
    14    21    26   ar
    15    22    25   ar
    16    23    26   ar
    17    24    23    1
    18     3     4   ar
    19     5     4    1
    20    19    21    1
    21    13    14   ar
    22    15    17   ar
    23     1     6   ar
    24     2     3   ar
    25    21    25   ar
    26    22    23   ar
    27     4     7   ar
    28    19    20    1
@<TRIPOS>MOLECULE
Molport-052-054-894
 26 28 0 0 0
SMALL
GASTEIGER

@<TRIPOS>ATOM
      1 C          11.5304   40.7580    9.3547 C.ar    1  UNL1        0.1545
      2 C           9.5319   41.9359    8.8472 C.ar    1  UNL1        0.1361
      3 C           9.0348   40.8050    8.1839 C.ar    1  UNL1        0.0492
      4 C           9.8376   39.6628    8.1108 C.ar    1  UNL1        0.0635
      5 C           9.3338   38.4228    7.4433 C.3     1  UNL1        0.0522
      6 N          10.7571   41.8757    9.4323 N.ar    1  UNL1       -0.2145
      7 N          11.0589   39.6602    8.7062 N.ar    1  UNL1       -0.2335
      8 C          12.9549   39.5151   11.0468 C.3     1  UNL1        0.0256
      9 C          12.8694   40.6884   10.0466 C.3     1  UNL1        0.1171
     10 C          14.7491   39.4478    9.0670 C.3     1  UNL1        0.0902
     11 N          13.9573   40.6913    9.0341 N.3     1  UNL1       -0.2614
     12 C          13.5044   41.0059    7.6614 C.3     1  UNL1        0.1195
     13 C          14.2680   42.1790    7.1290 C.ar    1  UNL1        0.0818
     14 C          13.7530   43.0607    6.1813 C.ar    1  UNL1        0.0526
     15 C          16.0562   43.5161    6.8987 C.ar    1  UNL1        0.0883
     16 C          17.4093   44.0707    7.1856 C.3     1  UNL1        0.0594
     17 N          15.5437   42.4369    7.5272 N.ar    1  UNL1       -0.2456
     18 S          14.9404   44.2032    5.8460 S.2     1  UNL1       -0.0705
     19 N           8.7522   43.1328    8.9850 N.pl3   1  UNL1       -0.2781
     20 H           9.2302   43.9932    9.0088 H       1  UNL1        0.1555
     21 C           7.3230   43.1571    9.0902 C.ar    1  UNL1        0.1643
     22 C           5.2650   42.4788    9.6725 C.ar    1  UNL1        0.1030
     23 C           4.9278   43.5556    8.8605 C.ar    1  UNL1        0.0293
     24 C           3.5428   44.0318    8.5777 C.3     1  UNL1        0.0399
     25 N           6.6001   42.2530    9.7893 N.ar    1  UNL1       -0.2228
     26 S           6.3424   44.2563    8.2770 S.2     1  UNL1       -0.0557
@<TRIPOS>BOND
     1     9     8    1
     2     9    11    1
     3     9     1    1
     4    10    11    1
     5    12    11    1
     6    12    13    1
     7    13    17   ar
     8    14    18   ar
     9    15    18   ar
    10    16    15    1
    11     1     7   ar
    12     2     6   ar
    13     2    19    1
    14    21    26   ar
    15    22    25   ar
    16    23    26   ar
    17    24    23    1
    18     3     4   ar
    19     5     4    1
    20    19    21    1
    21    13    14   ar
    22    15    17   ar
    23     1     6   ar
    24     2     3   ar
    25    21    25   ar
    26    22    23   ar
    27     4     7   ar
    28    19    20    1
@<TRIPOS>MOLECULE
Molport-052-054-894
 26 28 0 0 0
SMALL
GASTEIGER

@<TRIPOS>ATOM
      1 C          10.4041   41.5293    9.0335 C.ar    1  UNL1        0.1545
      2 C          12.3590   41.1298    7.7458 C.ar    1  UNL1        0.1361
      3 C          12.2829   39.7645    8.0553 C.ar    1  UNL1        0.0492
      4 C          11.2491   39.3209    8.8854 C.ar    1  UNL1        0.0635
      5 C          11.1096   37.8684    9.2134 C.3     1  UNL1        0.0522
      6 N          11.4065   41.9722    8.2259 N.ar    1  UNL1       -0.2145
      7 N          10.3284   40.2082    9.3451 N.ar    1  UNL1       -0.2335
      8 C           9.9049   43.6814   10.2809 C.3     1  UNL1        0.0256
      9 C           9.3276   42.4661    9.5231 C.3     1  UNL1        0.1171
     10 C           8.0722   41.6677    7.5691 C.3     1  UNL1        0.0902
     11 N           8.4332   42.8348    8.3950 N.3     1  UNL1       -0.2614
     12 C           7.2339   43.6004    8.7998 C.3     1  UNL1        0.1195
     13 C           6.2413   42.6867    9.4500 C.ar    1  UNL1        0.0818
     14 C           6.5140   41.9599   10.6068 C.ar    1  UNL1        0.0526
     15 C           4.2855   41.6020    9.6412 C.ar    1  UNL1        0.0883
     16 C           2.8725   41.2423    9.3337 C.3     1  UNL1        0.0594
     17 N           5.0036   42.4886    8.9198 N.ar    1  UNL1       -0.2456
     18 S           5.1485   41.0501   10.9740 S.2     1  UNL1       -0.0705
     19 N          13.3762   41.6508    6.8779 N.pl3   1  UNL1       -0.2781
     20 H          13.1578   41.7555    5.9236 H       1  UNL1        0.1555
     21 C          14.6896   42.0288    7.3100 C.ar    1  UNL1        0.1643
     22 C          16.5943   41.9575    8.4938 C.ar    1  UNL1        0.1030
     23 C          16.8064   43.1396    7.7936 C.ar    1  UNL1        0.0293
     24 C          18.0251   43.9953    7.8801 C.3     1  UNL1        0.0399
     25 N          15.4090   41.3471    8.2300 N.ar    1  UNL1       -0.2228
     26 S          15.4756   43.4279    6.8044 S.2     1  UNL1       -0.0557
@<TRIPOS>BOND
     1     9     8    1
     2     9    11    1
     3     9     1    1
     4    10    11    1
     5    12    11    1
     6    12    13    1
     7    13    17   ar
     8    14    18   ar
     9    15    18   ar
    10    16    15    1
    11     1     7   ar
    12     2     6   ar
    13     2    19    1
    14    21    26   ar
    15    22    25   ar
    16    23    26   ar
    17    24    23    1
    18     3     4   ar
    19     5     4    1
    20    19    21    1
    21    13    14   ar
    22    15    17   ar
    23     1     6   ar
    24     2     3   ar
    25    21    25   ar
    26    22    23   ar
    27     4     7   ar
    28    19    20    1
@<TRIPOS>MOLECULE
Molport-052-054-894
 26 28 0 0 0
SMALL
GASTEIGER

@<TRIPOS>ATOM
      1 C           8.5480   40.6043    5.8797 C.ar    1  UNL1        0.1545
      2 C          10.7841   41.2712    5.4391 C.ar    1  UNL1        0.1361
      3 C          10.8887   40.2717    4.4614 C.ar    1  UNL1        0.0492
      4 C           9.7909   39.4358    4.2359 C.ar    1  UNL1        0.0635
      5 C           9.8465   38.3791    3.1789 C.3     1  UNL1        0.0522
      6 N           9.6106   41.4242    6.1074 N.ar    1  UNL1       -0.2145
      7 N           8.6444   39.6274    4.9392 N.ar    1  UNL1       -0.2335
      8 C           6.1831   39.7494    6.2165 C.3     1  UNL1        0.0256
      9 C           7.2364   40.8129    6.5958 C.3     1  UNL1        0.1171
     10 C           8.8596   40.5645    8.4221 C.3     1  UNL1        0.0902
     11 N           7.4760   40.9221    8.0584 N.3     1  UNL1       -0.2614
     12 C           7.0857   42.2255    8.6391 C.3     1  UNL1        0.1195
     13 C           5.7908   42.0867    9.3785 C.ar    1  UNL1        0.0818
     14 C           4.7517   43.0096    9.2814 C.ar    1  UNL1        0.0526
     15 C           4.3523   41.1343   10.8144 C.ar    1  UNL1        0.0883
     16 C           3.8086   40.0997   11.7389 C.3     1  UNL1        0.0594
     17 N           5.5642   41.0465   10.2264 N.ar    1  UNL1       -0.2456
     18 S           3.5090   42.4895   10.2876 S.2     1  UNL1       -0.0705
     19 N          11.8605   42.1826    5.7040 N.pl3   1  UNL1       -0.2781
     20 H          11.8348   43.0646    5.2673 H       1  UNL1        0.1555
     21 C          12.9706   41.8924    6.5630 C.ar    1  UNL1        0.1643
     22 C          14.1157   40.9253    8.2327 C.ar    1  UNL1        0.1030
     23 C          15.0554   41.8665    7.8285 C.ar    1  UNL1        0.0293
     24 C          16.4171   42.0423    8.4113 C.3     1  UNL1        0.0399
     25 N          12.9510   40.9500    7.5326 N.ar    1  UNL1       -0.2228
     26 S          14.4167   42.7525    6.5479 S.2     1  UNL1       -0.0557
@<TRIPOS>BOND
     1     9     8    1
     2     9    11    1
     3     9     1    1
     4    10    11    1
     5    12    11    1
     6    12    13    1
     7    13    17   ar
     8    14    18   ar
     9    15    18   ar
    10    16    15    1
    11     1     7   ar
    12     2     6   ar
    13     2    19    1
    14    21    26   ar
    15    22    25   ar
    16    23    26   ar
    17    24    23    1
    18     3     4   ar
    19     5     4    1
    20    19    21    1
    21    13    14   ar
    22    15    17   ar
    23     1     6   ar
    24     2     3   ar
    25    21    25   ar
    26    22    23   ar
    27     4     7   ar
    28    19    20    1
@<TRIPOS>MOLECULE
Molport-052-054-894
 26 28 0 0 0
SMALL
GASTEIGER

@<TRIPOS>ATOM
      1 C          10.5232   41.0967    8.7282 C.ar    1  UNL1        0.1545
      2 C           8.6217   42.4538    9.1548 C.ar    1  UNL1        0.1361
      3 C           8.8001   42.2690   10.5331 C.ar    1  UNL1        0.0492
      4 C           9.8549   41.4628   10.9714 C.ar    1  UNL1        0.0635
      5 C          10.1030   41.2664   12.4331 C.3     1  UNL1        0.0522
      6 N           9.4995   41.8800    8.2902 N.ar    1  UNL1       -0.2145
      7 N          10.6977   40.9058   10.0628 N.ar    1  UNL1       -0.2335
      8 C          10.8965   40.2260    6.3746 C.3     1  UNL1        0.0256
      9 C          11.5172   40.5023    7.7612 C.3     1  UNL1        0.1171
     10 C          13.8856   40.7082    8.3775 C.3     1  UNL1        0.0902
     11 N          12.7368   41.3500    7.7121 N.3     1  UNL1       -0.2614
     12 C          13.0928   41.8188    6.3549 C.3     1  UNL1        0.1195
     13 C          14.1552   42.8707    6.4415 C.ar    1  UNL1        0.0818
     14 C          14.1321   44.0448    5.6920 C.ar    1  UNL1        0.0526
     15 C          16.0880   43.7662    7.1491 C.ar    1  UNL1        0.0883
     16 C          17.3253   43.9049    7.9681 C.3     1  UNL1        0.0594
     17 N          15.2391   42.7216    7.2509 N.ar    1  UNL1       -0.2456
     18 S          15.5152   44.9223    6.0717 S.2     1  UNL1       -0.0705
     19 N           7.5779   43.2903    8.6348 N.pl3   1  UNL1       -0.2781
     20 H           7.8404   44.0913    8.1262 H       1  UNL1        0.1555
     21 C           6.1781   43.0353    8.8078 C.ar    1  UNL1        0.1643
     22 C           3.9999   43.4839    9.1053 C.ar    1  UNL1        0.1030
     23 C           3.9652   42.0996    9.2273 C.ar    1  UNL1        0.0293
     24 C           2.7420   41.2767    9.4544 C.3     1  UNL1        0.0399
     25 N           5.2362   44.0027    8.8826 N.ar    1  UNL1       -0.2228
     26 S           5.5271   41.5013    9.0407 S.2     1  UNL1       -0.0557
@<TRIPOS>BOND
     1     9     8    1
     2     9    11    1
     3     9     1    1
     4    10    11    1
     5    12    11    1
     6    12    13    1
     7    13    17   ar
     8    14    18   ar
     9    15    18   ar
    10    16    15    1
    11     1     7   ar
    12     2     6   ar
    13     2    19    1
    14    21    26   ar
    15    22    25   ar
    16    23    26   ar
    17    24    23    1
    18     3     4   ar
    19     5     4    1
    20    19    21    1
    21    13    14   ar
    22    15    17   ar
    23     1     6   ar
    24     2     3   ar
    25    21    25   ar
    26    22    23   ar
    27     4     7   ar
    28    19    20    1
