@<TRIPOS>MOLECULE
MolPort-002-981-680 6636089 CSSS00121599785 MCULE-5633763296 PubChem-4540015 ZINC000006636089 ZINC06636089
 20 21 0 0 0
SMALL
GASTEIGER

@<TRIPOS>ATOM
      1 C           6.9967   41.6108   10.8263 C.2     1  UNL1        0.2517
      2 N           7.9529   41.3627    9.7873 N.am    1  UNL1       -0.2480
      3 O           7.3822   41.8597   12.0014 O.2     1  UNL1       -0.2697
      4 H           7.6057   41.1727    8.8858 H       1  UNL1        0.1581
      5 C           5.5557   41.5748   10.5201 C.ar    1  UNL1        0.0534
      6 C           4.6137   41.9074   11.5046 C.ar    1  UNL1        0.0003
      7 C           3.2464   41.8735   11.2153 C.ar    1  UNL1       -0.0217
      8 C           2.2564   42.2276   12.2651 C.3     1  UNL1        0.0310
      9 C           2.8110   41.5067    9.9391 C.ar    1  UNL1       -0.0043
     10 C           3.7425   41.1738    8.9520 C.ar    1  UNL1       -0.0002
     11 C           5.1098   41.2076    9.2413 C.ar    1  UNL1        0.0045
     12 C           9.3730   41.3701    9.9604 C.ar    1  UNL1        0.2619
     13 N          11.3033   40.7906   10.5166 N.ar    1  UNL1       -0.1497
     14 N          11.4040   41.9523    9.8940 N.ar    1  UNL1       -0.0438
     15 N          10.1952   42.3490    9.5297 N.ar    1  UNL1       -0.0918
     16 N          10.0469   40.3835   10.5784 N.ar    1  UNL1       -0.1137
     17 C          12.4363   40.0464   11.0392 C.3     1  UNL1        0.1514
     18 C          13.5375   39.9719    9.9946 C.3     1  UNL1        0.0283
     19 C          14.5379   38.6705   11.8708 C.3     1  UNL1        0.0001
     20 C          14.8297   39.4793   10.6208 C.3     1  UNL1        0.0021
@<TRIPOS>BOND
     1    19    20    1
     2    20    18    1
     3    18    17    1
     4    17    13    1
     5    12    15   ar
     6    12     2    1
     7     1     5    1
     8     6     7   ar
     9     8     7    1
    10     9    10   ar
    11    11     5   ar
    12    13    14   ar
    13    13    16   ar
    14     2     1   am
    15    12    16   ar
    16     1     3    2
    17     5     6   ar
    18     7     9   ar
    19    10    11   ar
    20    14    15   ar
    21     2     4    1
@<TRIPOS>MOLECULE
MolPort-002-981-680 6636089 CSSS00121599785 MCULE-5633763296 PubChem-4540015 ZINC000006636089 ZINC06636089
 20 21 0 0 0
SMALL
GASTEIGER

@<TRIPOS>ATOM
      1 C          13.8948   42.9089    6.7054 C.2     1  UNL1        0.2517
      2 N          12.9729   41.8552    7.0140 N.am    1  UNL1       -0.2480
      3 O          13.5315   43.8863    5.9955 O.2     1  UNL1       -0.2697
      4 H          13.3010   41.1127    7.5711 H       1  UNL1        0.1581
      5 C          15.2744   42.8498    7.2201 C.ar    1  UNL1        0.0534
      6 C          15.6482   41.8517    8.1320 C.ar    1  UNL1        0.0003
      7 C          16.9566   41.7947    8.6209 C.ar    1  UNL1       -0.0217
      8 C          17.3427   40.7335    9.5866 C.3     1  UNL1        0.0310
      9 C          17.9010   42.7355    8.2017 C.ar    1  UNL1       -0.0043
     10 C          17.5374   43.7334    7.2935 C.ar    1  UNL1       -0.0002
     11 C          16.2290   43.7904    6.8045 C.ar    1  UNL1        0.0045
     12 C          11.6126   41.8003    6.5742 C.ar    1  UNL1        0.2619
     13 N           9.5239   41.8929    6.5807 N.ar    1  UNL1       -0.1497
     14 N           9.9005   41.5616    5.3578 N.ar    1  UNL1       -0.0438
     15 N          11.2215   41.4922    5.3206 N.ar    1  UNL1       -0.0918
     16 N          10.5654   42.0574    7.3785 N.ar    1  UNL1       -0.1137
     17 C           8.1407   42.0793    6.9840 C.3     1  UNL1        0.1514
     18 C           7.6882   40.9139    7.8482 C.3     1  UNL1        0.0283
     19 C           6.4920   39.5381    6.1479 C.3     1  UNL1        0.0001
     20 C           7.7090   39.6228    7.0500 C.3     1  UNL1        0.0021
@<TRIPOS>BOND
     1    19    20    1
     2    20    18    1
     3    18    17    1
     4    17    13    1
     5    12    15   ar
     6    12     2    1
     7     1     5    1
     8     6     7   ar
     9     8     7    1
    10     9    10   ar
    11    11     5   ar
    12    13    14   ar
    13    13    16   ar
    14     2     1   am
    15    12    16   ar
    16     1     3    2
    17     5     6   ar
    18     7     9   ar
    19    10    11   ar
    20    14    15   ar
    21     2     4    1
@<TRIPOS>MOLECULE
MolPort-002-981-680 6636089 CSSS00121599785 MCULE-5633763296 PubChem-4540015 ZINC000006636089 ZINC06636089
 20 21 0 0 0
SMALL
GASTEIGER

@<TRIPOS>ATOM
      1 C          15.7924   41.0527    8.8605 C.2     1  UNL1        0.2517
      2 N          14.4054   40.7031    8.9575 N.am    1  UNL1       -0.2480
      3 O          16.6661   40.3669    9.4585 O.2     1  UNL1       -0.2697
      4 H          13.7594   41.2672    8.4741 H       1  UNL1        0.1581
      5 C          16.1997   42.2196    8.0579 C.ar    1  UNL1        0.0534
      6 C          15.2990   42.8109    7.1598 C.ar    1  UNL1        0.0003
      7 C          15.6842   43.9179    6.3979 C.ar    1  UNL1       -0.0217
      8 C          14.7228   44.5372    5.4493 C.3     1  UNL1        0.0310
      9 C          16.9732   44.4417    6.5284 C.ar    1  UNL1       -0.0043
     10 C          17.8771   43.8589    7.4207 C.ar    1  UNL1       -0.0002
     11 C          17.4918   42.7520    8.1827 C.ar    1  UNL1        0.0045
     12 C          13.8883   39.5970    9.7032 C.ar    1  UNL1        0.2619
     13 N          12.9020   37.8151   10.1759 N.ar    1  UNL1       -0.1497
     14 N          13.4264   38.2846   11.2946 N.ar    1  UNL1       -0.0438
     15 N          14.0580   39.4169   11.0292 N.ar    1  UNL1       -0.0918
     16 N          13.1698   38.6040    9.1491 N.ar    1  UNL1       -0.1137
     17 C          12.1518   36.5742   10.0867 C.3     1  UNL1        0.1514
     18 C          13.0994   35.3873   10.1408 C.3     1  UNL1        0.0283
     19 C          14.8829   34.2666    8.8074 C.3     1  UNL1        0.0001
     20 C          14.2677   35.5984    9.1946 C.3     1  UNL1        0.0021
@<TRIPOS>BOND
     1    19    20    1
     2    20    18    1
     3    18    17    1
     4    17    13    1
     5    12    15   ar
     6    12     2    1
     7     1     5    1
     8     6     7   ar
     9     8     7    1
    10     9    10   ar
    11    11     5   ar
    12    13    14   ar
    13    13    16   ar
    14     2     1   am
    15    12    16   ar
    16     1     3    2
    17     5     6   ar
    18     7     9   ar
    19    10    11   ar
    20    14    15   ar
    21     2     4    1
@<TRIPOS>MOLECULE
MolPort-002-981-680 6636089 CSSS00121599785 MCULE-5633763296 PubChem-4540015 ZINC000006636089 ZINC06636089
 20 21 0 0 0
SMALL
GASTEIGER

@<TRIPOS>ATOM
      1 C           6.5622   42.1755    7.6941 C.2     1  UNL1        0.2517
      2 N           7.2339   40.9387    7.4207 N.am    1  UNL1       -0.2480
      3 O           6.9188   43.2367    7.1129 O.2     1  UNL1       -0.2697
      4 H           6.9214   40.1364    7.8980 H       1  UNL1        0.1581
      5 C           5.4493   42.2072    8.6595 C.ar    1  UNL1        0.0534
      6 C           5.2706   41.1548    9.5695 C.ar    1  UNL1        0.0003
      7 C           4.2152   41.1838   10.4857 C.ar    1  UNL1       -0.0217
      8 C           4.0344   40.0642   11.4456 C.3     1  UNL1        0.0310
      9 C           3.3305   42.2654   10.4987 C.ar    1  UNL1       -0.0043
     10 C           3.5009   43.3183    9.5958 C.ar    1  UNL1       -0.0002
     11 C           4.5563   43.2893    8.6795 C.ar    1  UNL1        0.0045
     12 C           8.3237   40.7815    6.5072 C.ar    1  UNL1        0.2619
     13 N          10.2616   40.7498    5.7229 N.ar    1  UNL1       -0.1497
     14 N           9.4389   40.3778    4.7575 N.ar    1  UNL1       -0.0438
     15 N           8.2000   40.3896    5.2225 N.ar    1  UNL1       -0.0918
     16 N           9.6066   41.0094    6.8418 N.ar    1  UNL1       -0.1137
     17 C          11.7045   40.8330    5.5757 C.3     1  UNL1        0.1514
     18 C          12.2476   41.9838    6.4066 C.3     1  UNL1        0.0283
     19 C          14.6184   42.3106    7.1045 C.3     1  UNL1        0.0001
     20 C          13.3557   41.4985    7.3238 C.3     1  UNL1        0.0021
@<TRIPOS>BOND
     1    19    20    1
     2    20    18    1
     3    18    17    1
     4    17    13    1
     5    12    15   ar
     6    12     2    1
     7     1     5    1
     8     6     7   ar
     9     8     7    1
    10     9    10   ar
    11    11     5   ar
    12    13    14   ar
    13    13    16   ar
    14     2     1   am
    15    12    16   ar
    16     1     3    2
    17     5     6   ar
    18     7     9   ar
    19    10    11   ar
    20    14    15   ar
    21     2     4    1
@<TRIPOS>MOLECULE
MolPort-002-981-680 6636089 CSSS00121599785 MCULE-5633763296 PubChem-4540015 ZINC000006636089 ZINC06636089
 20 21 0 0 0
SMALL
GASTEIGER

@<TRIPOS>ATOM
      1 C          12.5215   41.7779    6.5557 C.2     1  UNL1        0.2517
      2 N          11.3910   42.2473    5.8092 N.am    1  UNL1       -0.2480
      3 O          12.4600   40.6881    7.1880 O.2     1  UNL1       -0.2697
      4 H          11.4851   43.1031    5.3317 H       1  UNL1        0.1581
      5 C          13.7619   42.5730    6.5848 C.ar    1  UNL1        0.0534
      6 C          14.8354   42.1814    7.3982 C.ar    1  UNL1        0.0003
      7 C          16.0126   42.9348    7.4266 C.ar    1  UNL1       -0.0217
      8 C          17.1443   42.5116    8.2915 C.3     1  UNL1        0.0310
      9 C          16.1250   44.0856    6.6418 C.ar    1  UNL1       -0.0043
     10 C          15.0604   44.4833    5.8285 C.ar    1  UNL1       -0.0002
     11 C          13.8832   43.7298    5.8001 C.ar    1  UNL1        0.0045
     12 C          10.1368   41.5670    5.7051 C.ar    1  UNL1        0.2619
     13 N           8.1893   40.9294    6.1199 N.ar    1  UNL1       -0.1497
     14 N           8.5780   40.3172    5.0148 N.ar    1  UNL1       -0.0438
     15 N           9.8117   40.6989    4.7253 N.ar    1  UNL1       -0.0918
     16 N           9.1339   41.7279    6.5871 N.ar    1  UNL1       -0.1137
     17 C           6.8784   40.7639    6.7240 C.3     1  UNL1        0.1514
     18 C           6.5950   41.9130    7.6772 C.3     1  UNL1        0.0283
     19 C           4.7537   41.1509    9.1752 C.3     1  UNL1        0.0001
     20 C           6.2484   41.3837    9.0572 C.3     1  UNL1        0.0021
@<TRIPOS>BOND
     1    19    20    1
     2    20    18    1
     3    18    17    1
     4    17    13    1
     5    12    15   ar
     6    12     2    1
     7     1     5    1
     8     6     7   ar
     9     8     7    1
    10     9    10   ar
    11    11     5   ar
    12    13    14   ar
    13    13    16   ar
    14     2     1   am
    15    12    16   ar
    16     1     3    2
    17     5     6   ar
    18     7     9   ar
    19    10    11   ar
    20    14    15   ar
    21     2     4    1
@<TRIPOS>MOLECULE
MolPort-002-981-680 6636089 CSSS00121599785 MCULE-5633763296 PubChem-4540015 ZINC000006636089 ZINC06636089
 20 21 0 0 0
SMALL
GASTEIGER

@<TRIPOS>ATOM
      1 C           7.3349   42.7570    8.5504 C.2     1  UNL1        0.2517
      2 N           8.1548   41.6131    8.2766 N.am    1  UNL1       -0.2480
      3 O           7.7847   43.9216    8.3702 O.2     1  UNL1       -0.2697
      4 H           7.7615   40.7241    8.4322 H       1  UNL1        0.1581
      5 C           5.9593   42.5712    9.0452 C.ar    1  UNL1        0.0534
      6 C           5.6563   41.5138    9.9155 C.ar    1  UNL1        0.0003
      7 C           4.3518   41.3365   10.3856 C.ar    1  UNL1       -0.0217
      8 C           4.0409   40.2133   11.3073 C.3     1  UNL1        0.0310
      9 C           3.3404   42.2154    9.9887 C.ar    1  UNL1       -0.0043
     10 C           3.6332   43.2716    9.1218 C.ar    1  UNL1       -0.0002
     11 C           4.9378   43.4489    8.6518 C.ar    1  UNL1        0.0045
     12 C           9.5008   41.6650    7.7945 C.ar    1  UNL1        0.2619
     13 N          11.5911   41.6767    7.7549 N.ar    1  UNL1       -0.1497
     14 N          11.1721   41.7938    6.5068 N.ar    1  UNL1       -0.0438
     15 N           9.8488   41.7918    6.4974 N.ar    1  UNL1       -0.0918
     16 N          10.5767   41.5883    8.5983 N.ar    1  UNL1       -0.1137
     17 C          12.9904   41.6236    8.1421 C.3     1  UNL1        0.1514
     18 C          13.3840   40.1949    8.4789 C.3     1  UNL1        0.0283
     19 C          13.1630   39.8478   10.9377 C.3     1  UNL1        0.0001
     20 C          14.1248   40.1473    9.8031 C.3     1  UNL1        0.0021
@<TRIPOS>BOND
     1    19    20    1
     2    20    18    1
     3    18    17    1
     4    17    13    1
     5    12    15   ar
     6    12     2    1
     7     1     5    1
     8     6     7   ar
     9     8     7    1
    10     9    10   ar
    11    11     5   ar
    12    13    14   ar
    13    13    16   ar
    14     2     1   am
    15    12    16   ar
    16     1     3    2
    17     5     6   ar
    18     7     9   ar
    19    10    11   ar
    20    14    15   ar
    21     2     4    1
@<TRIPOS>MOLECULE
MolPort-002-981-680 6636089 CSSS00121599785 MCULE-5633763296 PubChem-4540015 ZINC000006636089 ZINC06636089
 20 21 0 0 0
SMALL
GASTEIGER

@<TRIPOS>ATOM
      1 C          13.0712   42.0175    7.0249 C.2     1  UNL1        0.2517
      2 N          11.8532   41.4643    7.5407 N.am    1  UNL1       -0.2480
      3 O          13.0587   42.7214    5.9782 O.2     1  UNL1       -0.2697
      4 H          11.9115   40.9213    8.3599 H       1  UNL1        0.1581
      5 C          14.3446   41.7621    7.7212 C.ar    1  UNL1        0.0534
      6 C          15.4554   42.5873    7.4917 C.ar    1  UNL1        0.0003
      7 C          16.6639   42.3461    8.1515 C.ar    1  UNL1       -0.0217
      8 C          17.8348   43.2260    7.9016 C.3     1  UNL1        0.0310
      9 C          16.7707   41.2776    9.0458 C.ar    1  UNL1       -0.0043
     10 C          15.6692   40.4503    9.2806 C.ar    1  UNL1       -0.0002
     11 C          14.4606   40.6916    8.6207 C.ar    1  UNL1        0.0045
     12 C          10.5595   41.6412    6.9559 C.ar    1  UNL1        0.2619
     13 N           8.5210   42.0554    6.7458 N.ar    1  UNL1       -0.1497
     14 N           8.9823   41.7276    5.5513 N.ar    1  UNL1       -0.0438
     15 N          10.2738   41.4565    5.6506 N.ar    1  UNL1       -0.0918
     16 N           9.4767   42.0192    7.6588 N.ar    1  UNL1       -0.1137
     17 C           7.1437   42.4345    7.0105 C.3     1  UNL1        0.1514
     18 C           7.0734   43.9000    7.4064 C.3     1  UNL1        0.0283
     19 C           4.7754   44.8277    7.6775 C.3     1  UNL1        0.0001
     20 C           5.9290   44.1328    8.3763 C.3     1  UNL1        0.0021
@<TRIPOS>BOND
     1    19    20    1
     2    20    18    1
     3    18    17    1
     4    17    13    1
     5    12    15   ar
     6    12     2    1
     7     1     5    1
     8     6     7   ar
     9     8     7    1
    10     9    10   ar
    11    11     5   ar
    12    13    14   ar
    13    13    16   ar
    14     2     1   am
    15    12    16   ar
    16     1     3    2
    17     5     6   ar
    18     7     9   ar
    19    10    11   ar
    20    14    15   ar
    21     2     4    1
@<TRIPOS>MOLECULE
MolPort-002-981-680 6636089 CSSS00121599785 MCULE-5633763296 PubChem-4540015 ZINC000006636089 ZINC06636089
 20 21 0 0 0
SMALL
GASTEIGER

@<TRIPOS>ATOM
      1 C          12.9782   41.8944    7.5019 C.2     1  UNL1        0.2517
      2 N          12.8585   41.8387    8.9295 N.am    1  UNL1       -0.2480
      3 O          12.1180   41.3357    6.7677 O.2     1  UNL1       -0.2697
      4 H          13.5535   42.2889    9.4619 H       1  UNL1        0.1581
      5 C          14.1125   42.6079    6.8888 C.ar    1  UNL1        0.0534
      6 C          15.3722   42.5986    7.5057 C.ar    1  UNL1        0.0003
      7 C          16.4489   43.2752    6.9251 C.ar    1  UNL1       -0.0217
      8 C          17.7794   43.2593    7.5864 C.3     1  UNL1        0.0310
      9 C          16.2739   43.9663    5.7232 C.ar    1  UNL1       -0.0043
     10 C          15.0224   43.9810    5.1016 C.ar    1  UNL1       -0.0002
     11 C          13.9457   43.3043    5.6822 C.ar    1  UNL1        0.0045
     12 C          11.8062   41.1788    9.6394 C.ar    1  UNL1        0.2619
     13 N          10.1966   40.8408   10.9303 N.ar    1  UNL1       -0.1497
     14 N          10.4739   39.6930   10.3362 N.ar    1  UNL1       -0.0438
     15 N          11.4931   39.8731    9.5114 N.ar    1  UNL1       -0.0918
     16 N          11.0047   41.8038   10.5207 N.ar    1  UNL1       -0.1137
     17 C           9.1204   41.0217   11.8893 C.3     1  UNL1        0.1514
     18 C           8.1920   42.1327   11.4274 C.3     1  UNL1        0.0283
     19 C           6.7485   41.4434    9.5154 C.3     1  UNL1        0.0001
     20 C           6.8435   41.5635   11.0248 C.3     1  UNL1        0.0021
@<TRIPOS>BOND
     1    19    20    1
     2    20    18    1
     3    18    17    1
     4    17    13    1
     5    12    15   ar
     6    12     2    1
     7     1     5    1
     8     6     7   ar
     9     8     7    1
    10     9    10   ar
    11    11     5   ar
    12    13    14   ar
    13    13    16   ar
    14     2     1   am
    15    12    16   ar
    16     1     3    2
    17     5     6   ar
    18     7     9   ar
    19    10    11   ar
    20    14    15   ar
    21     2     4    1
@<TRIPOS>MOLECULE
MolPort-002-981-680 6636089 CSSS00121599785 MCULE-5633763296 PubChem-4540015 ZINC000006636089 ZINC06636089
 20 21 0 0 0
SMALL
GASTEIGER

@<TRIPOS>ATOM
      1 C          12.3506   41.6948    7.1728 C.2     1  UNL1        0.2517
      2 N          11.9627   40.9577    6.0059 N.am    1  UNL1       -0.2480
      3 O          11.4772   42.1236    7.9756 O.2     1  UNL1       -0.2697
      4 H          12.6788   40.6431    5.4079 H       1  UNL1        0.1581
      5 C          13.7774   41.9532    7.4357 C.ar    1  UNL1        0.0534
      6 C          14.4431   42.9938    6.7713 C.ar    1  UNL1        0.0003
      7 C          15.7966   43.2399    7.0198 C.ar    1  UNL1       -0.0217
      8 C          16.4928   44.3446    6.3109 C.3     1  UNL1        0.0310
      9 C          16.4945   42.4470    7.9347 C.ar    1  UNL1       -0.0043
     10 C          15.8394   41.4080    8.6013 C.ar    1  UNL1       -0.0002
     11 C          14.4858   41.1620    8.3527 C.ar    1  UNL1        0.0045
     12 C          10.6145   40.6444    5.6440 C.ar    1  UNL1        0.2619
     13 N           8.5593   40.2862    5.7818 N.ar    1  UNL1       -0.1497
     14 N           8.9025   40.1328    4.5146 N.ar    1  UNL1       -0.0438
     15 N          10.2021   40.3512    4.3936 N.ar    1  UNL1       -0.0918
     16 N           9.6011   40.6120    6.5280 N.ar    1  UNL1       -0.1137
     17 C           7.2025   40.1420    6.2807 C.3     1  UNL1        0.1514
     18 C           6.8183   41.3593    7.1054 C.3     1  UNL1        0.0283
     19 C           6.6560   43.8469    7.0898 C.3     1  UNL1        0.0001
     20 C           6.7844   42.6012    6.2331 C.3     1  UNL1        0.0021
@<TRIPOS>BOND
     1    19    20    1
     2    20    18    1
     3    18    17    1
     4    17    13    1
     5    12    15   ar
     6    12     2    1
     7     1     5    1
     8     6     7   ar
     9     8     7    1
    10     9    10   ar
    11    11     5   ar
    12    13    14   ar
    13    13    16   ar
    14     2     1   am
    15    12    16   ar
    16     1     3    2
    17     5     6   ar
    18     7     9   ar
    19    10    11   ar
    20    14    15   ar
    21     2     4    1
@<TRIPOS>MOLECULE
MolPort-002-981-680 6636089 CSSS00121599785 MCULE-5633763296 PubChem-4540015 ZINC000006636089 ZINC06636089
 20 21 0 0 0
SMALL
GASTEIGER

@<TRIPOS>ATOM
      1 C           7.7129   42.1813    8.9341 C.2     1  UNL1        0.2517
      2 N           8.4248   40.9434    9.0615 N.am    1  UNL1       -0.2480
      3 O           8.2935   43.2075    8.4855 O.2     1  UNL1       -0.2697
      4 H           7.9308   40.1693    9.4165 H       1  UNL1        0.1581
      5 C           6.2952   42.2556    9.3296 C.ar    1  UNL1        0.0534
      6 C           5.7550   41.3074   10.2108 C.ar    1  UNL1        0.0003
      7 C           4.4103   41.3768   10.5866 C.ar    1  UNL1       -0.0217
      8 C           3.8475   40.3676   11.5207 C.3     1  UNL1        0.0310
      9 C           3.5958   42.3949   10.0839 C.ar    1  UNL1       -0.0043
     10 C           4.1255   43.3438    9.2054 C.ar    1  UNL1       -0.0002
     11 C           5.4703   43.2745    8.8295 C.ar    1  UNL1        0.0045
     12 C           9.7982   40.7471    8.7120 C.ar    1  UNL1        0.2619
     13 N          11.8864   40.7389    8.8156 N.ar    1  UNL1       -0.1497
     14 N          11.5469   40.2131    7.6514 N.ar    1  UNL1       -0.0438
     15 N          10.2271   40.2058    7.5534 N.ar    1  UNL1       -0.0918
     16 N          10.8209   41.0852    9.5178 N.ar    1  UNL1       -0.1137
     17 C          13.2574   40.8883    9.2724 C.3     1  UNL1        0.1514
     18 C          13.7812   39.5598    9.7923 C.3     1  UNL1        0.0283
     19 C          14.6996   38.6795   11.9362 C.3     1  UNL1        0.0001
     20 C          13.5664   39.4555   11.2915 C.3     1  UNL1        0.0021
@<TRIPOS>BOND
     1    19    20    1
     2    20    18    1
     3    18    17    1
     4    17    13    1
     5    12    15   ar
     6    12     2    1
     7     1     5    1
     8     6     7   ar
     9     8     7    1
    10     9    10   ar
    11    11     5   ar
    12    13    14   ar
    13    13    16   ar
    14     2     1   am
    15    12    16   ar
    16     1     3    2
    17     5     6   ar
    18     7     9   ar
    19    10    11   ar
    20    14    15   ar
    21     2     4    1
