@<TRIPOS>MOLECULE
MolPort-046-932-000 142864033 CHEMBL3357014 MCULE-4179892381 MCULE-5655925433 ZINC000142864033
 35 38 0 0 0
SMALL
GASTEIGER

@<TRIPOS>ATOM
      1 C           9.6059   41.4267    9.4245 C.ar    1  UNL1        0.0318
      2 C          10.6072   40.7349   10.1764 C.ar    1  UNL1        0.1399
      3 C          11.9678   40.7854    9.7826 C.ar    1  UNL1        0.0491
      4 C          12.2835   41.5233    8.6432 C.ar    1  UNL1        0.0769
      5 C          11.3360   42.1797    7.9250 C.ar    1  UNL1        0.0996
      6 C           9.9937   42.1584    8.2784 C.ar    1  UNL1        0.0230
      7 C          13.2067   42.4915    7.0195 C.ar    1  UNL1        0.2015
      8 N          11.8924   42.8087    6.8806 N.ar    1  UNL1       -0.2136
      9 N          13.4920   41.7046    8.0877 N.ar    1  UNL1       -0.3253
     10 F          10.2743   40.0130   11.2773 F       1  UNL1       -0.2044
     11 H          14.3644   41.3552    8.3809 H       1  UNL1        0.1686
     12 C           8.1638   41.4053    9.8024 C.ar    1  UNL1        0.0405
     13 C           7.7685   41.6267   11.1285 C.ar    1  UNL1        0.1019
     14 C           5.4898   41.3746   10.5401 C.ar    1  UNL1        0.1630
     15 C           7.1512   41.1603    8.8677 C.ar    1  UNL1        0.1019
     16 N           6.4551   41.6055   11.4710 N.ar    1  UNL1       -0.2268
     17 N           5.8478   41.1467    9.2474 N.ar    1  UNL1       -0.2268
     18 C           4.0427   41.3319   10.9495 C.3     1  UNL1        0.1399
     19 C           3.7192   39.9919   11.5858 C.3     1  UNL1        0.0371
     20 C           3.1629   41.5258    9.7295 C.3     1  UNL1        0.0371
     21 O           3.7657   42.3441   11.8715 O.3     1  UNL1       -0.3796
     22 H           4.3242   42.2285   12.6561 H       1  UNL1        0.2108
     23 C          15.5660   43.2762    6.4928 C.2     1  UNL1        0.3066
     24 O          15.9395   43.1976    7.6950 O.2     1  UNL1       -0.2524
     25 N          14.2250   42.9420    6.1200 N.am    1  UNL1       -0.2398
     26 N          16.4808   43.7077    5.4834 N.am    1  UNL1       -0.2886
     27 H          13.9839   43.0289    5.1694 H       1  UNL1        0.1592
     28 H          16.1611   43.7742    4.5547 H       1  UNL1        0.1510
     29 C          17.8657   44.0532    5.7707 C.3     1  UNL1        0.0910
     30 C          18.0908   44.1031    7.2705 C.3     1  UNL1        0.0230
     31 C          13.0489   40.0682   10.5372 C.3     1  UNL1        0.1411
     32 C          14.0057   38.0703   10.7595 C.3     1  UNL1        0.1426
     33 C          15.0166   38.8735    9.9749 C.3     1  UNL1        0.0349
     34 C          14.3913   40.2303    9.8588 C.3     1  UNL1        0.0368
     35 O          12.7576   38.7006   10.6523 O.3     1  UNL1       -0.3517
@<TRIPOS>BOND
     1    12     1    1
     2     2     3   ar
     3     2    10    1
     4    31     3    1
     5    31    35    1
     6    32    35    1
     7    32    33    1
     8    33    34    1
     9    34    31    1
    10     4     5   ar
    11     5     8   ar
    12     6     1   ar
    13     7    25    1
    14     7     9   ar
    15    23    26   am
    16    29    26    1
    17    29    30    1
    18    13    16   ar
    19    14    17   ar
    20    15    12   ar
    21    18    14    1
    22    18    21    1
    23    18    19    1
    24    18    20    1
    25    25    23   am
    26     9     4   ar
    27    12    13   ar
    28     1     2   ar
    29     3     4   ar
    30     5     6   ar
    31     7     8   ar
    32    23    24    2
    33    14    16   ar
    34    15    17   ar
    35    21    22    1
    36    25    27    1
    37    26    28    1
    38     9    11    1
@<TRIPOS>MOLECULE
MolPort-046-932-000 142864033 CHEMBL3357014 MCULE-4179892381 MCULE-5655925433 ZINC000142864033
 35 38 0 0 0
SMALL
GASTEIGER

@<TRIPOS>ATOM
      1 C          11.2768   40.0346    8.5529 C.ar    1  UNL1        0.0318
      2 C          11.0109   40.9259    7.4660 C.ar    1  UNL1        0.1399
      3 C           9.6819   41.3079    7.1555 C.ar    1  UNL1        0.0491
      4 C           8.6580   40.7805    7.9403 C.ar    1  UNL1        0.0769
      5 C           8.9054   39.9323    8.9716 C.ar    1  UNL1        0.0996
      6 C          10.1920   39.5360    9.3107 C.ar    1  UNL1        0.0230
      7 C           6.8312   40.2404    8.8332 C.ar    1  UNL1        0.2015
      8 N           7.7596   39.5680    9.5634 N.ar    1  UNL1       -0.2136
      9 N           7.3381   40.9970    7.8270 N.ar    1  UNL1       -0.3253
     10 F          12.0242   41.4186    6.7080 F       1  UNL1       -0.2044
     11 H           6.8591   41.5616    7.1782 H       1  UNL1        0.1686
     12 C          12.6577   39.6079    8.9189 C.ar    1  UNL1        0.0405
     13 C          13.1542   38.3633    8.5084 C.ar    1  UNL1        0.1019
     14 C          15.2224   38.7830    9.5801 C.ar    1  UNL1        0.1630
     15 C          13.5094   40.4133    9.6835 C.ar    1  UNL1        0.1019
     16 N          14.4113   37.9759    8.8437 N.ar    1  UNL1       -0.2268
     17 N          14.7608   39.9922    9.9996 N.ar    1  UNL1       -0.2268
     18 C          16.6028   38.3204    9.9594 C.3     1  UNL1        0.1399
     19 C          16.7616   36.8423    9.6508 C.3     1  UNL1        0.0371
     20 C          16.8243   38.5428   11.4431 C.3     1  UNL1        0.0371
     21 O          17.5700   39.0331    9.2466 O.3     1  UNL1       -0.3796
     22 H          17.4365   38.8969    8.2956 H       1  UNL1        0.2108
     23 C           4.6332   41.2231    9.6469 C.2     1  UNL1        0.3066
     24 O           5.1592   42.3235    9.9681 O.2     1  UNL1       -0.2524
     25 N           5.4247   40.1689    9.0893 N.am    1  UNL1       -0.2398
     26 N           3.2334   41.0123    9.8422 N.am    1  UNL1       -0.2886
     27 H           4.9653   39.3278    8.8640 H       1  UNL1        0.1592
     28 H           2.8492   40.1398    9.5965 H       1  UNL1        0.1510
     29 C           2.3514   42.0334   10.3891 C.3     1  UNL1        0.0910
     30 C           2.5882   43.3579    9.6875 C.3     1  UNL1        0.0230
     31 C           9.3575   42.2334    6.0194 C.3     1  UNL1        0.1411
     32 C           7.8637   42.5744    4.4042 C.3     1  UNL1        0.1426
     33 C           7.5425   43.6377    5.4284 C.3     1  UNL1        0.0349
     34 C           8.5724   43.4349    6.4977 C.3     1  UNL1        0.0368
     35 O           8.6189   41.5707    5.0276 O.3     1  UNL1       -0.3517
@<TRIPOS>BOND
     1    12     1    1
     2     2     3   ar
     3     2    10    1
     4    31     3    1
     5    31    35    1
     6    32    35    1
     7    32    33    1
     8    33    34    1
     9    34    31    1
    10     4     5   ar
    11     5     8   ar
    12     6     1   ar
    13     7    25    1
    14     7     9   ar
    15    23    26   am
    16    29    26    1
    17    29    30    1
    18    13    16   ar
    19    14    17   ar
    20    15    12   ar
    21    18    14    1
    22    18    21    1
    23    18    19    1
    24    18    20    1
    25    25    23   am
    26     9     4   ar
    27    12    13   ar
    28     1     2   ar
    29     3     4   ar
    30     5     6   ar
    31     7     8   ar
    32    23    24    2
    33    14    16   ar
    34    15    17   ar
    35    21    22    1
    36    25    27    1
    37    26    28    1
    38     9    11    1
@<TRIPOS>MOLECULE
MolPort-046-932-000 142864033 CHEMBL3357014 MCULE-4179892381 MCULE-5655925433 ZINC000142864033
 35 38 0 0 0
SMALL
GASTEIGER

@<TRIPOS>ATOM
      1 C          11.6721   41.1005    9.4039 C.ar    1  UNL1        0.0318
      2 C          12.4399   41.7027    8.3577 C.ar    1  UNL1        0.1399
      3 C          13.8321   41.4588    8.2534 C.ar    1  UNL1        0.0491
      4 C          14.4147   40.6231    9.2044 C.ar    1  UNL1        0.0769
      5 C          13.6902   40.0511   10.2006 C.ar    1  UNL1        0.0996
      6 C          12.3247   40.2614   10.3362 C.ar    1  UNL1        0.0230
      7 C          15.6960   39.4549   10.3960 C.ar    1  UNL1        0.2015
      8 N          14.4787   39.2983   10.9800 N.ar    1  UNL1       -0.2136
      9 N          15.7030   40.2596    9.3032 N.ar    1  UNL1       -0.3253
     10 F          11.8524   42.5226    7.4486 F       1  UNL1       -0.2044
     11 H          16.4612   40.5126    8.7284 H       1  UNL1        0.1686
     12 C          10.2055   41.3248    9.5513 C.ar    1  UNL1        0.0405
     13 C           9.3076   40.8388    8.5914 C.ar    1  UNL1        0.1019
     14 C           7.4709   41.7223    9.7949 C.ar    1  UNL1        0.1630
     15 C           9.6632   42.0262   10.6343 C.ar    1  UNL1        0.1019
     16 N           7.9726   41.0452    8.7265 N.ar    1  UNL1       -0.2268
     17 N           8.3223   42.2132   10.7358 N.ar    1  UNL1       -0.2268
     18 C           5.9896   41.9590    9.9091 C.3     1  UNL1        0.1399
     19 C           5.4776   41.4340   11.2386 C.3     1  UNL1        0.0371
     20 C           5.2711   41.2404    8.7834 C.3     1  UNL1        0.0371
     21 O           5.7053   43.3243    9.8273 O.3     1  UNL1       -0.3796
     22 H           6.1609   43.7929   10.5440 H       1  UNL1        0.2108
     23 C          17.5323   37.7020   10.2774 C.2     1  UNL1        0.3066
     24 O          17.0551   37.1659    9.2402 O.2     1  UNL1       -0.2524
     25 N          16.8886   38.8291   10.8807 N.am    1  UNL1       -0.2398
     26 N          18.7253   37.1840   10.8694 N.am    1  UNL1       -0.2886
     27 H          17.2986   39.2036   11.6936 H       1  UNL1        0.1592
     28 H          19.0699   37.6112   11.6867 H       1  UNL1        0.1510
     29 C          19.4525   36.0511   10.3149 C.3     1  UNL1        0.0910
     30 C          19.6471   36.2363    8.8214 C.3     1  UNL1        0.0230
     31 C          14.6766   42.0763    7.1772 C.3     1  UNL1        0.1411
     32 C          14.9849   43.9783    6.0619 C.3     1  UNL1        0.1426
     33 C          16.1543   43.9220    7.0170 C.3     1  UNL1        0.0349
     34 C          15.9698   42.6229    7.7406 C.3     1  UNL1        0.0368
     35 O          13.9863   43.1125    6.5305 O.3     1  UNL1       -0.3517
@<TRIPOS>BOND
     1    12     1    1
     2     2     3   ar
     3     2    10    1
     4    31     3    1
     5    31    35    1
     6    32    35    1
     7    32    33    1
     8    33    34    1
     9    34    31    1
    10     4     5   ar
    11     5     8   ar
    12     6     1   ar
    13     7    25    1
    14     7     9   ar
    15    23    26   am
    16    29    26    1
    17    29    30    1
    18    13    16   ar
    19    14    17   ar
    20    15    12   ar
    21    18    14    1
    22    18    21    1
    23    18    19    1
    24    18    20    1
    25    25    23   am
    26     9     4   ar
    27    12    13   ar
    28     1     2   ar
    29     3     4   ar
    30     5     6   ar
    31     7     8   ar
    32    23    24    2
    33    14    16   ar
    34    15    17   ar
    35    21    22    1
    36    25    27    1
    37    26    28    1
    38     9    11    1
@<TRIPOS>MOLECULE
MolPort-046-932-000 142864033 CHEMBL3357014 MCULE-4179892381 MCULE-5655925433 ZINC000142864033
 35 38 0 0 0
SMALL
GASTEIGER

@<TRIPOS>ATOM
      1 C           8.6833   41.3824    7.8052 C.ar    1  UNL1        0.0318
      2 C           8.8046   40.7323    6.5366 C.ar    1  UNL1        0.1399
      3 C          10.0193   40.7928    5.8088 C.ar    1  UNL1        0.0491
      4 C          11.0746   41.5083    6.3715 C.ar    1  UNL1        0.0769
      5 C          10.9633   42.1289    7.5743 C.ar    1  UNL1        0.0996
      6 C           9.7930   42.0912    8.3203 C.ar    1  UNL1        0.0230
      7 C          12.8968   42.4593    6.8201 C.ar    1  UNL1        0.2015
      8 N          12.1099   42.7462    7.8906 N.ar    1  UNL1       -0.2136
      9 N          12.3021   41.7019    5.8640 N.ar    1  UNL1       -0.3253
     10 F           7.7589   40.0499    6.0029 F       1  UNL1       -0.2044
     11 H          12.6762   41.3767    5.0134 H       1  UNL1        0.1686
     12 C           7.4276   41.3430    8.6080 C.ar    1  UNL1        0.0405
     13 C           6.1914   41.1075    7.9912 C.ar    1  UNL1        0.1019
     14 C           5.0722   41.2611   10.0711 C.ar    1  UNL1        0.1630
     15 C           7.4211   41.5427    9.9932 C.ar    1  UNL1        0.1019
     16 N           5.0489   41.0733    8.7236 N.ar    1  UNL1       -0.2268
     17 N           6.2583   41.5015   10.6928 N.ar    1  UNL1       -0.2268
     18 C           3.7893   41.2429   10.8569 C.3     1  UNL1        0.1399
     19 C           3.6776   39.9498   11.6447 C.3     1  UNL1        0.0371
     20 C           2.6103   41.3483    9.9089 C.3     1  UNL1        0.0371
     21 O           3.7481   42.3163   11.7499 O.3     1  UNL1       -0.3796
     22 H           4.4991   42.2575   12.3610 H       1  UNL1        0.2108
     23 C          15.3662   42.3862    7.4169 C.2     1  UNL1        0.3066
     24 O          15.2115   41.4569    8.2555 O.2     1  UNL1       -0.2524
     25 N          14.2489   42.9116    6.6926 N.am    1  UNL1       -0.2398
     26 N          16.6654   42.9328    7.1823 N.am    1  UNL1       -0.2886
     27 H          14.4243   43.6421    6.0563 H       1  UNL1        0.1592
     28 H          16.7579   43.6671    6.5331 H       1  UNL1        0.1510
     29 C          17.8583   42.4496    7.8631 C.3     1  UNL1        0.0910
     30 C          17.4691   41.5764    9.0415 C.3     1  UNL1        0.0230
     31 C          10.1872   40.1327    4.4714 C.3     1  UNL1        0.1411
     32 C          11.1464   38.3820    3.4857 C.3     1  UNL1        0.1426
     33 C           9.6823   38.0128    3.5403 C.3     1  UNL1        0.0349
     34 C           9.0298   39.2071    4.1674 C.3     1  UNL1        0.0368
     35 O          11.3830   39.4006    4.4200 O.3     1  UNL1       -0.3517
@<TRIPOS>BOND
     1    12     1    1
     2     2     3   ar
     3     2    10    1
     4    31     3    1
     5    31    35    1
     6    32    35    1
     7    32    33    1
     8    33    34    1
     9    34    31    1
    10     4     5   ar
    11     5     8   ar
    12     6     1   ar
    13     7    25    1
    14     7     9   ar
    15    23    26   am
    16    29    26    1
    17    29    30    1
    18    13    16   ar
    19    14    17   ar
    20    15    12   ar
    21    18    14    1
    22    18    21    1
    23    18    19    1
    24    18    20    1
    25    25    23   am
    26     9     4   ar
    27    12    13   ar
    28     1     2   ar
    29     3     4   ar
    30     5     6   ar
    31     7     8   ar
    32    23    24    2
    33    14    16   ar
    34    15    17   ar
    35    21    22    1
    36    25    27    1
    37    26    28    1
    38     9    11    1
@<TRIPOS>MOLECULE
MolPort-046-932-000 142864033 CHEMBL3357014 MCULE-4179892381 MCULE-5655925433 ZINC000142864033
 35 38 0 0 0
SMALL
GASTEIGER

@<TRIPOS>ATOM
      1 C          11.6511   41.6014    7.0922 C.ar    1  UNL1        0.0318
      2 C          11.1806   40.6935    6.0918 C.ar    1  UNL1        0.1399
      3 C           9.7934   40.4485    5.9357 C.ar    1  UNL1        0.0491
      4 C           8.9191   41.1166    6.7910 C.ar    1  UNL1        0.0769
      5 C           9.3613   41.9776    7.7436 C.ar    1  UNL1        0.0996
      6 C          10.7106   42.2477    7.9272 C.ar    1  UNL1        0.0230
      7 C           7.2641   41.8831    7.8397 C.ar    1  UNL1        0.2015
      8 N           8.3293   42.4849    8.4317 N.ar    1  UNL1       -0.2136
      9 N           7.5798   41.0355    6.8280 N.ar    1  UNL1       -0.3253
     10 F          12.0522   40.0453    5.2768 F       1  UNL1       -0.2044
     11 H           6.9786   40.4973    6.2639 H       1  UNL1        0.1686
     12 C          13.0997   41.8930    7.2909 C.ar    1  UNL1        0.0405
     13 C          13.7150   42.9547    6.6139 C.ar    1  UNL1        0.1019
     14 C          15.7918   42.4652    7.6384 C.ar    1  UNL1        0.1630
     15 C          13.9043   41.1292    8.1441 C.ar    1  UNL1        0.1019
     16 N          15.0344   43.2179    6.7950 N.ar    1  UNL1       -0.2268
     17 N          15.2208   41.4224    8.3000 N.ar    1  UNL1       -0.2268
     18 C          17.2575   42.7620    7.8031 C.3     1  UNL1        0.1399
     19 C          17.4615   43.7951    8.8968 C.3     1  UNL1        0.0371
     20 C          17.8166   43.3025    6.5012 C.3     1  UNL1        0.0371
     21 O          17.9553   41.6018    8.1471 O.3     1  UNL1       -0.3796
     22 H          17.6044   41.2483    8.9795 H       1  UNL1        0.2108
     23 C           5.2048   43.3503    8.0958 C.2     1  UNL1        0.3066
     24 O           5.7717   44.3603    7.5964 O.2     1  UNL1       -0.2524
     25 N           5.9084   42.1119    8.2379 N.am    1  UNL1       -0.2398
     26 N           3.8470   43.4322    8.5336 N.am    1  UNL1       -0.2886
     27 H           5.4212   41.3576    8.6416 H       1  UNL1        0.1592
     28 H           3.4314   42.6340    8.9329 H       1  UNL1        0.1510
     29 C           3.0523   44.6463    8.4140 C.3     1  UNL1        0.0910
     30 C           3.5943   45.5167    7.2954 C.3     1  UNL1        0.0230
     31 C           9.2573   39.4981    4.9052 C.3     1  UNL1        0.1411
     32 C           9.5289   38.8691    2.7869 C.3     1  UNL1        0.1426
     33 C          10.1393   37.7399    3.5838 C.3     1  UNL1        0.0349
     34 C           9.9217   38.1431    5.0104 C.3     1  UNL1        0.0368
     35 O           9.4498   40.0017    3.6099 O.3     1  UNL1       -0.3517
@<TRIPOS>BOND
     1    12     1    1
     2     2     3   ar
     3     2    10    1
     4    31     3    1
     5    31    35    1
     6    32    35    1
     7    32    33    1
     8    33    34    1
     9    34    31    1
    10     4     5   ar
    11     5     8   ar
    12     6     1   ar
    13     7    25    1
    14     7     9   ar
    15    23    26   am
    16    29    26    1
    17    29    30    1
    18    13    16   ar
    19    14    17   ar
    20    15    12   ar
    21    18    14    1
    22    18    21    1
    23    18    19    1
    24    18    20    1
    25    25    23   am
    26     9     4   ar
    27    12    13   ar
    28     1     2   ar
    29     3     4   ar
    30     5     6   ar
    31     7     8   ar
    32    23    24    2
    33    14    16   ar
    34    15    17   ar
    35    21    22    1
    36    25    27    1
    37    26    28    1
    38     9    11    1
@<TRIPOS>MOLECULE
MolPort-046-932-000 142864033 CHEMBL3357014 MCULE-4179892381 MCULE-5655925433 ZINC000142864033
 35 38 0 0 0
SMALL
GASTEIGER

@<TRIPOS>ATOM
      1 C           7.5031   40.7019    7.9687 C.ar    1  UNL1        0.0318
      2 C           8.2209   41.0815    9.1464 C.ar    1  UNL1        0.1399
      3 C           7.5392   41.6340   10.2594 C.ar    1  UNL1        0.0491
      4 C           6.1586   41.7950   10.1566 C.ar    1  UNL1        0.0769
      5 C           5.4734   41.4382    9.0397 C.ar    1  UNL1        0.0996
      6 C           6.1023   40.8909    7.9297 C.ar    1  UNL1        0.0230
      7 C           4.1177   42.2168   10.4441 C.ar    1  UNL1        0.2015
      8 N           4.1667   41.6946    9.1902 N.ar    1  UNL1       -0.2136
      9 N           5.3170   42.2969   11.0740 N.ar    1  UNL1       -0.3253
     10 F           9.5678   40.9254    9.2196 F       1  UNL1       -0.2044
     11 H           5.5188   42.6369   11.9756 H       1  UNL1        0.1686
     12 C           8.1765   40.1138    6.7755 C.ar    1  UNL1        0.0405
     13 C           8.4777   38.7460    6.7259 C.ar    1  UNL1        0.1019
     14 C           9.4268   38.9860    4.5709 C.ar    1  UNL1        0.1630
     15 C           8.5409   40.8875    5.6676 C.ar    1  UNL1        0.1019
     16 N           9.0921   38.2125    5.6393 N.ar    1  UNL1       -0.2268
     17 N           9.1544   40.3188    4.5983 N.ar    1  UNL1       -0.2268
     18 C          10.1293   38.3754    3.3889 C.3     1  UNL1        0.1399
     19 C           9.8069   36.8945    3.2974 C.3     1  UNL1        0.0371
     20 C          11.6281   38.5470    3.5432 C.3     1  UNL1        0.0371
     21 O           9.7232   38.9960    2.2051 O.3     1  UNL1       -0.3796
     22 H           8.7649   38.8915    2.0975 H       1  UNL1        0.2108
     23 C           2.3525   42.1059   12.2692 C.2     1  UNL1        0.3066
     24 O           2.9247   41.1540   12.8669 O.2     1  UNL1       -0.2524
     25 N           2.9061   42.6542   11.0685 N.am    1  UNL1       -0.2398
     26 N           1.1344   42.6480   12.7833 N.am    1  UNL1       -0.2886
     27 H           2.4146   43.3906   10.6379 H       1  UNL1        0.1592
     28 H           0.6997   43.3813   12.2908 H       1  UNL1        0.1510
     29 C           0.5090   42.1615   14.0048 C.3     1  UNL1        0.0910
     30 C          -1.0018   42.2256   13.8789 C.3     1  UNL1        0.0230
     31 C           8.2537   42.0534   11.5108 C.3     1  UNL1        0.1411
     32 C           8.8457   41.3149   13.5260 C.3     1  UNL1        0.1426
     33 C          10.1341   41.2942   12.7372 C.3     1  UNL1        0.0349
     34 C           9.7451   41.8286   11.3924 C.3     1  UNL1        0.0368
     35 O           7.7726   41.3474   12.6238 O.3     1  UNL1       -0.3517
@<TRIPOS>BOND
     1    12     1    1
     2     2     3   ar
     3     2    10    1
     4    31     3    1
     5    31    35    1
     6    32    35    1
     7    32    33    1
     8    33    34    1
     9    34    31    1
    10     4     5   ar
    11     5     8   ar
    12     6     1   ar
    13     7    25    1
    14     7     9   ar
    15    23    26   am
    16    29    26    1
    17    29    30    1
    18    13    16   ar
    19    14    17   ar
    20    15    12   ar
    21    18    14    1
    22    18    21    1
    23    18    19    1
    24    18    20    1
    25    25    23   am
    26     9     4   ar
    27    12    13   ar
    28     1     2   ar
    29     3     4   ar
    30     5     6   ar
    31     7     8   ar
    32    23    24    2
    33    14    16   ar
    34    15    17   ar
    35    21    22    1
    36    25    27    1
    37    26    28    1
    38     9    11    1
@<TRIPOS>MOLECULE
MolPort-046-932-000 142864033 CHEMBL3357014 MCULE-4179892381 MCULE-5655925433 ZINC000142864033
 35 38 0 0 0
SMALL
GASTEIGER

@<TRIPOS>ATOM
      1 C          11.4469   41.6901    6.9224 C.ar    1  UNL1        0.0318
      2 C          10.9909   40.7733    5.9234 C.ar    1  UNL1        0.1399
      3 C           9.6286   40.3862    5.8681 C.ar    1  UNL1        0.0491
      4 C           8.7648   40.9252    6.8197 C.ar    1  UNL1        0.0769
      5 C           9.1936   41.7941    7.7713 C.ar    1  UNL1        0.0996
      6 C          10.5180   42.2012    7.8580 C.ar    1  UNL1        0.0230
      7 C           7.1333   41.4710    8.0308 C.ar    1  UNL1        0.2015
      8 N           8.1760   42.1624    8.5618 N.ar    1  UNL1       -0.2136
      9 N           7.4491   40.6991    6.9602 N.ar    1  UNL1       -0.3253
     10 F          11.8534   40.2523    5.0131 F       1  UNL1       -0.2044
     11 H           6.8619   40.1199    6.4227 H       1  UNL1        0.1686
     12 C          12.8687   42.1287    7.0171 C.ar    1  UNL1        0.0405
     13 C          13.7806   41.4307    7.8203 C.ar    1  UNL1        0.1019
     14 C          15.5215   42.9157    7.2151 C.ar    1  UNL1        0.1630
     15 C          13.3529   43.2449    6.3252 C.ar    1  UNL1        0.1019
     16 N          15.0745   41.8323    7.9065 N.ar    1  UNL1       -0.2268
     17 N          14.6539   43.6168    6.4360 N.ar    1  UNL1       -0.2268
     18 C          16.9543   43.3551    7.3466 C.3     1  UNL1        0.1399
     19 C          17.5259   43.6890    5.9803 C.3     1  UNL1        0.0371
     20 C          17.7737   42.2398    7.9668 C.3     1  UNL1        0.0371
     21 O          17.0454   44.4878    8.1592 O.3     1  UNL1       -0.3796
     22 H          16.5239   45.2074    7.7703 H       1  UNL1        0.2108
     23 C           5.4430   41.4306    9.9283 C.2     1  UNL1        0.3066
     24 O           6.3270   41.2523   10.8102 O.2     1  UNL1       -0.2524
     25 N           5.7996   41.5381    8.5462 N.am    1  UNL1       -0.2398
     26 N           4.0663   41.5225   10.2998 N.am    1  UNL1       -0.2886
     27 H           5.0695   41.6685    7.8986 H       1  UNL1        0.1592
     28 H           3.3941   41.6477    9.5915 H       1  UNL1        0.1510
     29 C           3.6157   41.4386   11.6818 C.3     1  UNL1        0.0910
     30 C           2.3072   42.1882   11.8505 C.3     1  UNL1        0.0230
     31 C           9.1095   39.4212    4.8426 C.3     1  UNL1        0.1411
     32 C           9.4195   38.7584    2.7399 C.3     1  UNL1        0.1426
     33 C          10.0116   37.6402    3.5657 C.3     1  UNL1        0.0349
     34 C           9.7680   38.0663    4.9816 C.3     1  UNL1        0.0368
     35 O           9.3281   39.9040    3.5435 O.3     1  UNL1       -0.3517
@<TRIPOS>BOND
     1    12     1    1
     2     2     3   ar
     3     2    10    1
     4    31     3    1
     5    31    35    1
     6    32    35    1
     7    32    33    1
     8    33    34    1
     9    34    31    1
    10     4     5   ar
    11     5     8   ar
    12     6     1   ar
    13     7    25    1
    14     7     9   ar
    15    23    26   am
    16    29    26    1
    17    29    30    1
    18    13    16   ar
    19    14    17   ar
    20    15    12   ar
    21    18    14    1
    22    18    21    1
    23    18    19    1
    24    18    20    1
    25    25    23   am
    26     9     4   ar
    27    12    13   ar
    28     1     2   ar
    29     3     4   ar
    30     5     6   ar
    31     7     8   ar
    32    23    24    2
    33    14    16   ar
    34    15    17   ar
    35    21    22    1
    36    25    27    1
    37    26    28    1
    38     9    11    1
@<TRIPOS>MOLECULE
MolPort-046-932-000 142864033 CHEMBL3357014 MCULE-4179892381 MCULE-5655925433 ZINC000142864033
 35 38 0 0 0
SMALL
GASTEIGER

@<TRIPOS>ATOM
      1 C           7.6977   40.6991    7.9256 C.ar    1  UNL1        0.0318
      2 C           8.3013   41.8722    8.4788 C.ar    1  UNL1        0.1399
      3 C           7.7188   42.5252    9.5938 C.ar    1  UNL1        0.0491
      4 C           6.5452   41.9863   10.1176 C.ar    1  UNL1        0.0769
      5 C           5.9674   40.8742    9.5943 C.ar    1  UNL1        0.0996
      6 C           6.5072   40.2032    8.5055 C.ar    1  UNL1        0.0230
      7 C           4.8059   41.5406   11.2140 C.ar    1  UNL1        0.2015
      8 N           4.8539   40.5623   10.2716 N.ar    1  UNL1       -0.2136
      9 N           5.8241   42.4359   11.1566 N.ar    1  UNL1       -0.3253
     10 F           9.4392   42.3857    7.9446 F       1  UNL1       -0.2044
     11 H           5.9914   43.2174   11.7315 H       1  UNL1        0.1686
     12 C           8.2758   39.9768    6.7565 C.ar    1  UNL1        0.0405
     13 C           8.7145   38.6516    6.8800 C.ar    1  UNL1        0.1019
     14 C           9.3544   38.6023    4.6017 C.ar    1  UNL1        0.1630
     15 C           8.4127   40.5793    5.5006 C.ar    1  UNL1        0.1019
     16 N           9.2419   37.9959    5.8147 N.ar    1  UNL1       -0.2268
     17 N           8.9452   39.8919    4.4579 N.ar    1  UNL1       -0.2268
     18 C           9.9650   37.8623    3.4429 C.3     1  UNL1        0.1399
     19 C          11.4783   37.8566    3.5656 C.3     1  UNL1        0.0371
     20 C           9.5764   38.5415    2.1438 C.3     1  UNL1        0.0371
     21 O           9.5130   36.5409    3.4143 O.3     1  UNL1       -0.3796
     22 H           9.7571   36.0977    4.2419 H       1  UNL1        0.2108
     23 C           2.4316   42.0748   11.9465 C.2     1  UNL1        0.3066
     24 O           2.0754   42.4278   10.7892 O.2     1  UNL1       -0.2524
     25 N           3.7707   41.6362   12.1980 N.am    1  UNL1       -0.2398
     26 N           1.4986   42.1141   13.0282 N.am    1  UNL1       -0.2886
     27 H           3.9978   41.3800   13.1211 H       1  UNL1        0.1592
     28 H           1.8048   41.8470   13.9249 H       1  UNL1        0.1510
     29 C           0.1143   42.5326   12.8600 C.3     1  UNL1        0.0910
     30 C          -0.6712   42.2601   14.1294 C.3     1  UNL1        0.0230
     31 C           8.3139   43.7625   10.2001 C.3     1  UNL1        0.1411
     32 C          10.1548   45.0145   10.1845 C.3     1  UNL1        0.1426
     33 C           9.1569   45.8235    9.3892 C.3     1  UNL1        0.0349
     34 C           7.9054   45.0005    9.4325 C.3     1  UNL1        0.0368
     35 O           9.7145   43.6839   10.2277 O.3     1  UNL1       -0.3517
@<TRIPOS>BOND
     1    12     1    1
     2     2     3   ar
     3     2    10    1
     4    31     3    1
     5    31    35    1
     6    32    35    1
     7    32    33    1
     8    33    34    1
     9    34    31    1
    10     4     5   ar
    11     5     8   ar
    12     6     1   ar
    13     7    25    1
    14     7     9   ar
    15    23    26   am
    16    29    26    1
    17    29    30    1
    18    13    16   ar
    19    14    17   ar
    20    15    12   ar
    21    18    14    1
    22    18    21    1
    23    18    19    1
    24    18    20    1
    25    25    23   am
    26     9     4   ar
    27    12    13   ar
    28     1     2   ar
    29     3     4   ar
    30     5     6   ar
    31     7     8   ar
    32    23    24    2
    33    14    16   ar
    34    15    17   ar
    35    21    22    1
    36    25    27    1
    37    26    28    1
    38     9    11    1
@<TRIPOS>MOLECULE
MolPort-046-932-000 142864033 CHEMBL3357014 MCULE-4179892381 MCULE-5655925433 ZINC000142864033
 35 38 0 0 0
SMALL
GASTEIGER

@<TRIPOS>ATOM
      1 C           8.2631   40.6155    6.8647 C.ar    1  UNL1        0.0318
      2 C           7.0820   41.3978    6.6659 C.ar    1  UNL1        0.1399
      3 C           6.5401   42.1673    7.7256 C.ar    1  UNL1        0.0491
      4 C           7.1950   42.1251    8.9551 C.ar    1  UNL1        0.0769
      5 C           8.3151   41.3821    9.1491 C.ar    1  UNL1        0.0996
      6 C           8.8796   40.6175    8.1372 C.ar    1  UNL1        0.0230
      7 C           7.8326   42.3587   10.9463 C.ar    1  UNL1        0.2015
      8 N           8.7483   41.5089   10.4110 N.ar    1  UNL1       -0.2136
      9 N           6.8616   42.7623   10.0885 N.ar    1  UNL1       -0.3253
     10 F           6.4546   41.4148    5.4617 F       1  UNL1       -0.2044
     11 H           6.1044   43.3690   10.2553 H       1  UNL1        0.1686
     12 C           8.8711   39.7939    5.7794 C.ar    1  UNL1        0.0405
     13 C           9.4754   40.4052    4.6725 C.ar    1  UNL1        0.1019
     14 C          10.0137   38.2960    3.7430 C.ar    1  UNL1        0.1630
     15 C           8.8624   38.3946    5.8089 C.ar    1  UNL1        0.1019
     16 N          10.0273   39.6555    3.6845 N.ar    1  UNL1       -0.2268
     17 N           9.4244   37.6778    4.8021 N.ar    1  UNL1       -0.2268
     18 C          10.6104   37.4874    2.6234 C.3     1  UNL1        0.1399
     19 C          10.1908   36.0336    2.7478 C.3     1  UNL1        0.0371
     20 C          12.1233   37.5728    2.6842 C.3     1  UNL1        0.0371
     21 O          10.1801   37.9735    1.3865 O.3     1  UNL1       -0.3796
     22 H           9.2126   37.9230    1.3380 H       1  UNL1        0.2108
     23 C           8.2432   41.9968   13.4282 C.2     1  UNL1        0.3066
     24 O           8.5622   40.7863   13.2741 O.2     1  UNL1       -0.2524
     25 N           7.8720   42.8043   12.3061 N.am    1  UNL1       -0.2398
     26 N           8.2431   42.5788   14.7333 N.am    1  UNL1       -0.2886
     27 H           7.6240   43.7403   12.4836 H       1  UNL1        0.1592
     28 H           7.9767   43.5217   14.8291 H       1  UNL1        0.1510
     29 C           8.6204   41.8360   15.9274 C.3     1  UNL1        0.0910
     30 C           9.2817   40.5264   15.5401 C.3     1  UNL1        0.0230
     31 C           5.2989   42.9952    7.5631 C.3     1  UNL1        0.1411
     32 C           3.7638   44.1060    8.7319 C.3     1  UNL1        0.1426
     33 C           4.6278   45.1940    8.1382 C.3     1  UNL1        0.0349
     34 C           5.6376   44.4493    7.3189 C.3     1  UNL1        0.0368
     35 O           4.4810   42.9014    8.6992 O.3     1  UNL1       -0.3517
@<TRIPOS>BOND
     1    12     1    1
     2     2     3   ar
     3     2    10    1
     4    31     3    1
     5    31    35    1
     6    32    35    1
     7    32    33    1
     8    33    34    1
     9    34    31    1
    10     4     5   ar
    11     5     8   ar
    12     6     1   ar
    13     7    25    1
    14     7     9   ar
    15    23    26   am
    16    29    26    1
    17    29    30    1
    18    13    16   ar
    19    14    17   ar
    20    15    12   ar
    21    18    14    1
    22    18    21    1
    23    18    19    1
    24    18    20    1
    25    25    23   am
    26     9     4   ar
    27    12    13   ar
    28     1     2   ar
    29     3     4   ar
    30     5     6   ar
    31     7     8   ar
    32    23    24    2
    33    14    16   ar
    34    15    17   ar
    35    21    22    1
    36    25    27    1
    37    26    28    1
    38     9    11    1
@<TRIPOS>MOLECULE
MolPort-046-932-000 142864033 CHEMBL3357014 MCULE-4179892381 MCULE-5655925433 ZINC000142864033
 35 38 0 0 0
SMALL
GASTEIGER

@<TRIPOS>ATOM
      1 C          12.3179   41.5663    7.8007 C.ar    1  UNL1        0.0318
      2 C          12.2902   40.4249    8.6626 C.ar    1  UNL1        0.1399
      3 C          11.0619   39.7977    8.9892 C.ar    1  UNL1        0.0491
      4 C           9.8969   40.3370    8.4467 C.ar    1  UNL1        0.0769
      5 C           9.9181   41.4217    7.6299 C.ar    1  UNL1        0.0996
      6 C          11.0995   42.0630    7.2828 C.ar    1  UNL1        0.0230
      7 C           7.9260   40.7985    7.8737 C.ar    1  UNL1        0.2015
      8 N           8.6750   41.7429    7.2458 N.ar    1  UNL1       -0.2136
      9 N           8.6347   39.9151    8.6213 N.ar    1  UNL1       -0.3253
     10 F          13.4375   39.9236    9.1884 F       1  UNL1       -0.2044
     11 H           8.3062   39.1567    9.1563 H       1  UNL1        0.1686
     12 C          13.5854   42.2563    7.4265 C.ar    1  UNL1        0.0405
     13 C          14.8151   41.8204    7.9382 C.ar    1  UNL1        0.1019
     14 C          15.9630   43.5154    6.7499 C.ar    1  UNL1        0.1630
     15 C          13.6082   43.3594    6.5653 C.ar    1  UNL1        0.1019
     16 N          15.9681   42.4508    7.5975 N.ar    1  UNL1       -0.2268
     17 N          14.7812   43.9646    6.2472 N.ar    1  UNL1       -0.2268
     18 C          17.2515   44.2121    6.4072 C.3     1  UNL1        0.1399
     19 C          18.0137   43.4166    5.3624 C.3     1  UNL1        0.0371
     20 C          18.1073   44.3409    7.6526 C.3     1  UNL1        0.0371
     21 O          16.9969   45.4887    5.9003 O.3     1  UNL1       -0.3796
     22 H          16.4496   45.4166    5.1027 H       1  UNL1        0.2108
     23 C           5.5790   40.9983    8.8283 C.2     1  UNL1        0.3066
     24 O           5.9934   41.3254    9.9738 O.2     1  UNL1       -0.2524
     25 N           6.5004   40.7250    7.7675 N.am    1  UNL1       -0.2398
     26 N           4.1767   40.8905    8.5757 N.am    1  UNL1       -0.2886
     27 H           6.1236   40.4658    6.8956 H       1  UNL1        0.1592
     28 H           3.8789   40.6198    7.6772 H       1  UNL1        0.1510
     29 C           3.1698   41.1640    9.5911 C.3     1  UNL1        0.0910
     30 C           3.1908   42.6347    9.9641 C.3     1  UNL1        0.0230
     31 C          10.9865   38.6039    9.8957 C.3     1  UNL1        0.1411
     32 C          11.4060   36.4184    9.9592 C.3     1  UNL1        0.1426
     33 C          12.5240   37.0280   10.7722 C.3     1  UNL1        0.0349
     34 C          12.2209   38.4954   10.7636 C.3     1  UNL1        0.0368
     35 O          10.8432   37.4205    9.1558 O.3     1  UNL1       -0.3517
@<TRIPOS>BOND
     1    12     1    1
     2     2     3   ar
     3     2    10    1
     4    31     3    1
     5    31    35    1
     6    32    35    1
     7    32    33    1
     8    33    34    1
     9    34    31    1
    10     4     5   ar
    11     5     8   ar
    12     6     1   ar
    13     7    25    1
    14     7     9   ar
    15    23    26   am
    16    29    26    1
    17    29    30    1
    18    13    16   ar
    19    14    17   ar
    20    15    12   ar
    21    18    14    1
    22    18    21    1
    23    18    19    1
    24    18    20    1
    25    25    23   am
    26     9     4   ar
    27    12    13   ar
    28     1     2   ar
    29     3     4   ar
    30     5     6   ar
    31     7     8   ar
    32    23    24    2
    33    14    16   ar
    34    15    17   ar
    35    21    22    1
    36    25    27    1
    37    26    28    1
    38     9    11    1
