@<TRIPOS>MOLECULE
MolPort-047-015-083 MCULE-6651060413 PubChem-155985066
 29 32 0 0 0
SMALL
GASTEIGER

@<TRIPOS>ATOM
      1 N           8.3893   42.2684    9.8777 N.3     1  UNL1       -0.1537
      2 C           7.6240   42.2840   11.1306 C.3     1  UNL1        0.0959
      3 C           8.3964   41.6650   12.3090 C.3     1  UNL1        0.0196
      4 C           9.6842   40.9808   11.8552 C.3     1  UNL1        0.0089
      5 C          10.5479   41.9372   11.0230 C.3     1  UNL1        0.0581
      6 C           9.7075   42.8535   10.1213 C.3     1  UNL1        0.1017
      7 N          11.9735   41.6784    9.0283 N.ar    1  UNL1       -0.2348
      8 C          11.5599   41.1786   10.2245 C.ar    1  UNL1        0.0614
      9 C          12.0831   39.9638   10.6878 C.ar    1  UNL1        0.0149
     10 C          13.0227   39.2855    9.9126 C.ar    1  UNL1        0.0041
     11 C          13.4297   39.8202    8.6903 C.ar    1  UNL1        0.0344
     12 C          12.8892   41.0369    8.2522 C.ar    1  UNL1        0.1332
     13 N          13.2745   41.6278    7.0040 N.pl3   1  UNL1       -0.2782
     14 H          12.7024   41.4318    6.2272 H       1  UNL1        0.1555
     15 S          15.7883   42.4567    7.7269 S.2     1  UNL1       -0.0557
     16 N          14.4929   43.3750    5.7664 N.ar    1  UNL1       -0.2228
     17 C          14.4068   42.4743    6.7710 C.ar    1  UNL1        0.1643
     18 C          16.5269   43.6569    6.8105 C.ar    1  UNL1        0.0293
     19 C          15.6780   44.0418    5.7815 C.ar    1  UNL1        0.1030
     20 C          17.8792   44.2178    7.0639 C.3     1  UNL1        0.0399
     21 S           7.5640   43.2822    8.7382 S.O2    1  UNL1        0.0814
     22 O           7.9572   42.8989    7.3388 O.2     1  UNL1       -0.1513
     23 O           7.9261   44.7245    8.9668 O.2     1  UNL1       -0.1513
     24 N           3.8786   42.1791    9.1691 N.ar    1  UNL1       -0.3047
     25 N           4.9516   44.1011    8.8586 N.ar    1  UNL1       -0.2042
     26 C           5.8310   43.0810    8.9131 C.ar    1  UNL1        0.2217
     27 C           5.1842   41.8792    9.1027 C.ar    1  UNL1        0.1172
     28 C           3.7509   43.5095    9.0217 C.ar    1  UNL1        0.1800
     29 C           2.7952   41.2346    9.3626 C.3     1  UNL1        0.1321
@<TRIPOS>BOND
     1    21     1    1
     2    21    26    1
     3    13    17    1
     4    24    28   ar
     5     2     1    1
     6     2     3    1
     7     3     4    1
     8     4     5    1
     9     5     8    1
    10     5     6    1
    11     8     7   ar
    12     9    10   ar
    13    11    12   ar
    14    12    13    1
    15    17    15   ar
    16    18    15   ar
    17    19    16   ar
    18    20    18    1
    19     6     1    1
    20    26    25   ar
    21    27    24   ar
    22    29    24    1
    23    21    22    2
    24    21    23    2
    25     8     9   ar
    26    10    11   ar
    27    12     7   ar
    28    17    16   ar
    29    18    19   ar
    30    26    27   ar
    31    28    25   ar
    32    13    14    1
@<TRIPOS>MOLECULE
MolPort-047-015-083 MCULE-6651060413 PubChem-155985066
 29 32 0 0 0
SMALL
GASTEIGER

@<TRIPOS>ATOM
      1 N          16.2274   37.5141    9.2000 N.3     1  UNL1       -0.1537
      2 C          17.3625   37.9779   10.0075 C.3     1  UNL1        0.0959
      3 C          17.1302   39.3714   10.6178 C.3     1  UNL1        0.0196
      4 C          15.8736   40.0389   10.0631 C.3     1  UNL1        0.0089
      5 C          14.6543   39.1201   10.2134 C.3     1  UNL1        0.0581
      6 C          15.0023   37.6411    9.9889 C.3     1  UNL1        0.1017
      7 N          13.5705   40.8125    8.7854 N.ar    1  UNL1       -0.2348
      8 C          13.5475   39.5556    9.3064 C.ar    1  UNL1        0.0614
      9 C          12.4903   38.6918    8.9900 C.ar    1  UNL1        0.0149
     10 C          11.4761   39.1363    8.1429 C.ar    1  UNL1        0.0041
     11 C          11.5240   40.4294    7.6221 C.ar    1  UNL1        0.0344
     12 C          12.5935   41.2714    7.9561 C.ar    1  UNL1        0.1332
     13 N          12.6886   42.6084    7.4474 N.pl3   1  UNL1       -0.2782
     14 H          11.8879   43.1739    7.5392 H       1  UNL1        0.1555
     15 S          15.4137   42.7751    7.1740 S.2     1  UNL1       -0.0557
     16 N          13.7625   44.1757    5.8792 N.ar    1  UNL1       -0.2228
     17 C          13.8291   43.2062    6.8192 C.ar    1  UNL1        0.1643
     18 C          16.0388   43.8810    6.0731 C.ar    1  UNL1        0.0293
     19 C          14.9965   44.5593    5.4559 C.ar    1  UNL1        0.1030
     20 C          17.4839   44.0977    5.8035 C.3     1  UNL1        0.0399
     21 S          16.4670   35.8296    8.8645 S.O2    1  UNL1        0.0814
     22 O          15.2195   35.0615    9.2018 O.2     1  UNL1       -0.1513
     23 O          17.6061   35.2917    9.6872 O.2     1  UNL1       -0.1513
     24 N          16.6522   35.0347    5.0806 N.ar    1  UNL1       -0.3047
     25 N          17.9733   36.0051    6.5820 N.ar    1  UNL1       -0.2042
     26 C          16.8225   35.6097    7.1617 C.ar    1  UNL1        0.2217
     27 C          15.9902   35.0026    6.2466 C.ar    1  UNL1        0.1172
     28 C          17.8362   35.6355    5.2925 C.ar    1  UNL1        0.1800
     29 C          16.1762   34.5106    3.8148 C.3     1  UNL1        0.1321
@<TRIPOS>BOND
     1    21     1    1
     2    21    26    1
     3    13    17    1
     4    24    28   ar
     5     2     1    1
     6     2     3    1
     7     3     4    1
     8     4     5    1
     9     5     8    1
    10     5     6    1
    11     8     7   ar
    12     9    10   ar
    13    11    12   ar
    14    12    13    1
    15    17    15   ar
    16    18    15   ar
    17    19    16   ar
    18    20    18    1
    19     6     1    1
    20    26    25   ar
    21    27    24   ar
    22    29    24    1
    23    21    22    2
    24    21    23    2
    25     8     9   ar
    26    10    11   ar
    27    12     7   ar
    28    17    16   ar
    29    18    19   ar
    30    26    27   ar
    31    28    25   ar
    32    13    14    1
@<TRIPOS>MOLECULE
MolPort-047-015-083 MCULE-6651060413 PubChem-155985066
 29 32 0 0 0
SMALL
GASTEIGER

@<TRIPOS>ATOM
      1 N           8.1578   41.3988    9.4859 N.3     1  UNL1       -0.1537
      2 C           7.2332   41.7303   10.5771 C.3     1  UNL1        0.0959
      3 C           7.9311   41.8112   11.9463 C.3     1  UNL1        0.0196
      4 C           9.3731   41.3119   11.8860 C.3     1  UNL1        0.0089
      5 C          10.1566   42.0345   10.7827 C.3     1  UNL1        0.0581
      6 C           9.2991   42.3119    9.5389 C.3     1  UNL1        0.1017
      7 N          12.0232   41.5427    9.2491 N.ar    1  UNL1       -0.2348
      8 C          11.3926   41.2722   10.4243 C.ar    1  UNL1        0.0614
      9 C          11.9059   40.2855   11.2768 C.ar    1  UNL1        0.0149
     10 C          13.0589   39.5952   10.9054 C.ar    1  UNL1        0.0041
     11 C          13.6860   39.8923    9.6954 C.ar    1  UNL1        0.0344
     12 C          13.1499   40.8840    8.8627 C.ar    1  UNL1        0.1332
     13 N          13.7567   41.2261    7.6096 N.pl3   1  UNL1       -0.2782
     14 H          13.4106   40.7659    6.8110 H       1  UNL1        0.1555
     15 S          16.2720   42.1261    8.2353 S.2     1  UNL1       -0.0557
     16 N          14.7635   43.1906    6.5159 N.ar    1  UNL1       -0.2228
     17 C          14.8150   42.1689    7.4000 C.ar    1  UNL1        0.1643
     18 C          16.8601   43.4771    7.4261 C.ar    1  UNL1        0.0293
     19 C          15.9058   43.9284    6.5244 C.ar    1  UNL1        0.1030
     20 C          18.1953   44.0919    7.6435 C.3     1  UNL1        0.0399
     21 S           7.3308   41.6737    7.9865 S.O2    1  UNL1        0.0814
     22 O           7.0378   40.3590    7.3191 O.2     1  UNL1       -0.1513
     23 O           8.1826   42.5061    7.0672 O.2     1  UNL1       -0.1513
     24 N           4.2517   44.0012    8.2804 N.ar    1  UNL1       -0.3047
     25 N           4.8318   42.0025    9.0617 N.ar    1  UNL1       -0.2042
     26 C           5.8162   42.5035    8.2892 C.ar    1  UNL1        0.2217
     27 C           5.4762   43.7447    7.7970 C.ar    1  UNL1        0.1172
     28 C           3.8763   42.9537    9.0353 C.ar    1  UNL1        0.1800
     29 C           3.4713   45.1988    8.0351 C.3     1  UNL1        0.1321
@<TRIPOS>BOND
     1    21     1    1
     2    21    26    1
     3    13    17    1
     4    24    28   ar
     5     2     1    1
     6     2     3    1
     7     3     4    1
     8     4     5    1
     9     5     8    1
    10     5     6    1
    11     8     7   ar
    12     9    10   ar
    13    11    12   ar
    14    12    13    1
    15    17    15   ar
    16    18    15   ar
    17    19    16   ar
    18    20    18    1
    19     6     1    1
    20    26    25   ar
    21    27    24   ar
    22    29    24    1
    23    21    22    2
    24    21    23    2
    25     8     9   ar
    26    10    11   ar
    27    12     7   ar
    28    17    16   ar
    29    18    19   ar
    30    26    27   ar
    31    28    25   ar
    32    13    14    1
@<TRIPOS>MOLECULE
MolPort-047-015-083 MCULE-6651060413 PubChem-155985066
 29 32 0 0 0
SMALL
GASTEIGER

@<TRIPOS>ATOM
      1 N          11.4475   40.6540    8.2342 N.3     1  UNL1       -0.1537
      2 C          10.1674   41.1608    8.7443 C.3     1  UNL1        0.0959
      3 C           9.9897   40.9202   10.2539 C.3     1  UNL1        0.0196
      4 C          11.0817   40.0173   10.8238 C.3     1  UNL1        0.0089
      5 C          12.4748   40.5558   10.4739 C.3     1  UNL1        0.0581
      6 C          12.5293   41.1751    9.0693 C.3     1  UNL1        0.1017
      7 N          13.9796   38.8489    9.5253 N.ar    1  UNL1       -0.2348
      8 C          13.5106   39.4884   10.6312 C.ar    1  UNL1        0.0614
      9 C          14.0001   39.1370   11.8964 C.ar    1  UNL1        0.0149
     10 C          14.9635   38.1347   12.0013 C.ar    1  UNL1        0.0041
     11 C          15.4275   37.4954   10.8518 C.ar    1  UNL1        0.0344
     12 C          14.9197   37.8674    9.5995 C.ar    1  UNL1        0.1332
     13 N          15.3637   37.2408    8.3889 N.pl3   1  UNL1       -0.2782
     14 H          15.5801   37.8376    7.6363 H       1  UNL1        0.1555
     15 S          16.2913   35.1981    6.8092 S.2     1  UNL1       -0.0557
     16 N          15.0836   34.8707    8.9999 N.ar    1  UNL1       -0.2228
     17 C          15.5250   35.8354    8.1616 C.ar    1  UNL1        0.1643
     18 C          16.0450   33.6168    7.3236 C.ar    1  UNL1        0.0293
     19 C          15.3711   33.6247    8.5375 C.ar    1  UNL1        0.1030
     20 C          16.4816   32.3999    6.5912 C.3     1  UNL1        0.0399
     21 S          11.6674   41.2819    6.6327 S.O2    1  UNL1        0.0814
     22 O          10.4704   42.1019    6.2393 O.2     1  UNL1       -0.1513
     23 O          11.8288   40.1549    5.6492 O.2     1  UNL1       -0.1513
     24 N          15.1138   43.0300    6.8593 N.ar    1  UNL1       -0.3047
     25 N          13.1022   43.5470    6.0668 N.ar    1  UNL1       -0.2042
     26 C          13.0915   42.3039    6.5877 C.ar    1  UNL1        0.2217
     27 C          14.3303   41.9656    7.0872 C.ar    1  UNL1        0.1172
     28 C          14.3697   43.9694    6.2495 C.ar    1  UNL1        0.1800
     29 C          16.5157   43.1484    7.2115 C.3     1  UNL1        0.1321
@<TRIPOS>BOND
     1    21     1    1
     2    21    26    1
     3    13    17    1
     4    24    28   ar
     5     2     1    1
     6     2     3    1
     7     3     4    1
     8     4     5    1
     9     5     8    1
    10     5     6    1
    11     8     7   ar
    12     9    10   ar
    13    11    12   ar
    14    12    13    1
    15    17    15   ar
    16    18    15   ar
    17    19    16   ar
    18    20    18    1
    19     6     1    1
    20    26    25   ar
    21    27    24   ar
    22    29    24    1
    23    21    22    2
    24    21    23    2
    25     8     9   ar
    26    10    11   ar
    27    12     7   ar
    28    17    16   ar
    29    18    19   ar
    30    26    27   ar
    31    28    25   ar
    32    13    14    1
@<TRIPOS>MOLECULE
MolPort-047-015-083 MCULE-6651060413 PubChem-155985066
 29 32 0 0 0
SMALL
GASTEIGER

@<TRIPOS>ATOM
      1 N           8.4252   42.2023    9.0948 N.3     1  UNL1       -0.1537
      2 C           8.0339   43.6011    9.3086 C.3     1  UNL1        0.0959
      3 C           9.1614   44.4483    9.9244 C.3     1  UNL1        0.0196
      4 C          10.3432   43.5917   10.3739 C.3     1  UNL1        0.0089
      5 C          10.8372   42.6974    9.2295 C.3     1  UNL1        0.0581
      6 C           9.6877   42.1716    8.3570 C.3     1  UNL1        0.1017
      7 N          12.9309   41.3967    9.2785 N.ar    1  UNL1       -0.2348
      8 C          11.6694   41.5723    9.7575 C.ar    1  UNL1        0.0614
      9 C          11.1687   40.6983   10.7318 C.ar    1  UNL1        0.0149
     10 C          11.9749   39.6600   11.1963 C.ar    1  UNL1        0.0041
     11 C          13.2645   39.5026   10.6888 C.ar    1  UNL1        0.0344
     12 C          13.7386   40.3918    9.7146 C.ar    1  UNL1        0.1332
     13 N          15.0560   40.2725    9.1614 N.pl3   1  UNL1       -0.2782
     14 H          15.4669   39.3783    9.1881 H       1  UNL1        0.1555
     15 S          15.2317   42.3960    7.4327 S.2     1  UNL1       -0.0557
     16 N          17.1334   41.5634    8.8663 N.ar    1  UNL1       -0.2228
     17 C          15.8358   41.3210    8.5738 C.ar    1  UNL1        0.1643
     18 C          16.6997   43.2059    7.3106 C.ar    1  UNL1        0.0293
     19 C          17.6249   42.6181    8.1626 C.ar    1  UNL1        0.1030
     20 C          16.9644   44.3707    6.4268 C.3     1  UNL1        0.0399
     21 S           7.2146   41.4577    8.1011 S.O2    1  UNL1        0.0814
     22 O           7.6734   40.0894    7.6802 O.2     1  UNL1       -0.1513
     23 O           6.9685   42.2875    6.8705 O.2     1  UNL1       -0.1513
     24 N           4.3144   41.1328   10.6443 N.ar    1  UNL1       -0.3047
     25 N           4.5112   41.1532    8.4302 N.ar    1  UNL1       -0.2042
     26 C           5.7211   41.2990    9.0059 C.ar    1  UNL1        0.2217
     27 C           5.6204   41.2862   10.3801 C.ar    1  UNL1        0.1172
     28 C           3.6608   41.0540    9.4719 C.ar    1  UNL1        0.1800
     29 C           3.7134   41.0612   11.9623 C.3     1  UNL1        0.1321
@<TRIPOS>BOND
     1    21     1    1
     2    21    26    1
     3    13    17    1
     4    24    28   ar
     5     2     1    1
     6     2     3    1
     7     3     4    1
     8     4     5    1
     9     5     8    1
    10     5     6    1
    11     8     7   ar
    12     9    10   ar
    13    11    12   ar
    14    12    13    1
    15    17    15   ar
    16    18    15   ar
    17    19    16   ar
    18    20    18    1
    19     6     1    1
    20    26    25   ar
    21    27    24   ar
    22    29    24    1
    23    21    22    2
    24    21    23    2
    25     8     9   ar
    26    10    11   ar
    27    12     7   ar
    28    17    16   ar
    29    18    19   ar
    30    26    27   ar
    31    28    25   ar
    32    13    14    1
@<TRIPOS>MOLECULE
MolPort-047-015-083 MCULE-6651060413 PubChem-155985066
 29 32 0 0 0
SMALL
GASTEIGER

@<TRIPOS>ATOM
      1 N           9.4660   40.8015    7.3034 N.3     1  UNL1       -0.1537
      2 C           9.4033   40.9490    5.8440 C.3     1  UNL1        0.0959
      3 C          10.7479   40.6532    5.1564 C.3     1  UNL1        0.0196
      4 C          11.8849   40.4935    6.1635 C.3     1  UNL1        0.0089
      5 C          11.5279   39.4509    7.2307 C.3     1  UNL1        0.0581
      6 C          10.0436   39.4962    7.6227 C.3     1  UNL1        0.1017
      7 N          13.6745   40.0673    8.2749 N.ar    1  UNL1       -0.2348
      8 C          12.4060   39.6004    8.4323 C.ar    1  UNL1        0.0614
      9 C          11.9435   39.2644    9.7118 C.ar    1  UNL1        0.0149
     10 C          12.7938   39.4154   10.8063 C.ar    1  UNL1        0.0041
     11 C          14.0892   39.8965   10.6173 C.ar    1  UNL1        0.0344
     12 C          14.5248   40.2243    9.3260 C.ar    1  UNL1        0.1332
     13 N          15.8464   40.7222    9.0792 N.pl3   1  UNL1       -0.2782
     14 H          16.5936   40.1814    9.4234 H       1  UNL1        0.1555
     15 S          15.1838   42.6693    7.2631 S.2     1  UNL1       -0.0557
     16 N          17.3553   42.5950    8.5454 N.ar    1  UNL1       -0.2228
     17 C          16.1915   41.9260    8.3832 C.ar    1  UNL1        0.1643
     18 C          16.2901   43.9019    6.9756 C.ar    1  UNL1        0.0293
     19 C          17.4182   43.7035    7.7601 C.ar    1  UNL1        0.1030
     20 C          16.0899   45.0287    6.0280 C.3     1  UNL1        0.0399
     21 S           7.8415   40.8228    7.9100 S.O2    1  UNL1        0.0814
     22 O           7.8591   40.7692    9.4123 O.2     1  UNL1       -0.1513
     23 O           7.0762   39.6362    7.3905 O.2     1  UNL1       -0.1513
     24 N           5.7100   44.0074    7.3631 N.ar    1  UNL1       -0.3047
     25 N           7.3209   42.9464    6.2582 N.ar    1  UNL1       -0.2042
     26 C           7.0408   42.2992    7.4069 C.ar    1  UNL1        0.2217
     27 C           6.0415   42.9408    8.1057 C.ar    1  UNL1        0.1172
     28 C           6.4804   44.0008    6.2611 C.ar    1  UNL1        0.1800
     29 C           4.6968   44.9924    7.6895 C.3     1  UNL1        0.1321
@<TRIPOS>BOND
     1    21     1    1
     2    21    26    1
     3    13    17    1
     4    24    28   ar
     5     2     1    1
     6     2     3    1
     7     3     4    1
     8     4     5    1
     9     5     8    1
    10     5     6    1
    11     8     7   ar
    12     9    10   ar
    13    11    12   ar
    14    12    13    1
    15    17    15   ar
    16    18    15   ar
    17    19    16   ar
    18    20    18    1
    19     6     1    1
    20    26    25   ar
    21    27    24   ar
    22    29    24    1
    23    21    22    2
    24    21    23    2
    25     8     9   ar
    26    10    11   ar
    27    12     7   ar
    28    17    16   ar
    29    18    19   ar
    30    26    27   ar
    31    28    25   ar
    32    13    14    1
@<TRIPOS>MOLECULE
MolPort-047-015-083 MCULE-6651060413 PubChem-155985066
 29 32 0 0 0
SMALL
GASTEIGER

@<TRIPOS>ATOM
      1 N           7.9680   41.2404    9.2115 N.3     1  UNL1       -0.1537
      2 C           6.9966   41.5833   10.2576 C.3     1  UNL1        0.0959
      3 C           7.6494   41.7754   11.6379 C.3     1  UNL1        0.0196
      4 C           9.1158   41.3487   11.6438 C.3     1  UNL1        0.0089
      5 C           9.8938   42.0490   10.5223 C.3     1  UNL1        0.0581
      6 C           9.0601   42.2128    9.2428 C.3     1  UNL1        0.1017
      7 N          11.8501   41.6045    9.0893 N.ar    1  UNL1       -0.2348
      8 C          11.1764   41.3331   10.2401 C.ar    1  UNL1        0.0614
      9 C          11.6898   40.3884   11.1389 C.ar    1  UNL1        0.0149
     10 C          12.8871   39.7405   10.8381 C.ar    1  UNL1        0.0041
     11 C          13.5578   40.0376    9.6518 C.ar    1  UNL1        0.0344
     12 C          13.0205   40.9867    8.7715 C.ar    1  UNL1        0.1332
     13 N          13.6710   41.3269    7.5400 N.pl3   1  UNL1       -0.2782
     14 H          13.3488   40.8704    6.7294 H       1  UNL1        0.1555
     15 S          16.2159   42.1407    8.1642 S.2     1  UNL1       -0.0557
     16 N          14.6898   43.3413    6.5534 N.ar    1  UNL1       -0.2228
     17 C          14.7418   42.2631    7.3677 C.ar    1  UNL1        0.1643
     18 C          16.8111   43.5316    7.4313 C.ar    1  UNL1        0.0293
     19 C          15.8456   44.0573    6.5834 C.ar    1  UNL1        0.1030
     20 C          18.1619   44.1078    7.6572 C.3     1  UNL1        0.0399
     21 S           7.1722   41.3893    7.6778 S.O2    1  UNL1        0.0814
     22 O           7.0526   42.8410    7.3061 O.2     1  UNL1       -0.1513
     23 O           5.7939   40.7900    7.7461 O.2     1  UNL1       -0.1513
     24 N           9.6680   40.0829    5.0228 N.ar    1  UNL1       -0.3047
     25 N           7.7065   39.4289    5.8391 N.ar    1  UNL1       -0.2042
     26 C           8.1062   40.5654    6.4436 C.ar    1  UNL1        0.2217
     27 C           9.3204   40.9889    5.9487 C.ar    1  UNL1        0.1172
     28 C           8.6962   39.1553    4.9652 C.ar    1  UNL1        0.1800
     29 C          10.8772   40.1021    4.2224 C.3     1  UNL1        0.1321
@<TRIPOS>BOND
     1    21     1    1
     2    21    26    1
     3    13    17    1
     4    24    28   ar
     5     2     1    1
     6     2     3    1
     7     3     4    1
     8     4     5    1
     9     5     8    1
    10     5     6    1
    11     8     7   ar
    12     9    10   ar
    13    11    12   ar
    14    12    13    1
    15    17    15   ar
    16    18    15   ar
    17    19    16   ar
    18    20    18    1
    19     6     1    1
    20    26    25   ar
    21    27    24   ar
    22    29    24    1
    23    21    22    2
    24    21    23    2
    25     8     9   ar
    26    10    11   ar
    27    12     7   ar
    28    17    16   ar
    29    18    19   ar
    30    26    27   ar
    31    28    25   ar
    32    13    14    1
@<TRIPOS>MOLECULE
MolPort-047-015-083 MCULE-6651060413 PubChem-155985066
 29 32 0 0 0
SMALL
GASTEIGER

@<TRIPOS>ATOM
      1 N          10.7226   41.1064    9.5526 N.3     1  UNL1       -0.1537
      2 C           9.8376   40.6377    8.4788 C.3     1  UNL1        0.0959
      3 C          10.3287   39.3323    7.8284 C.3     1  UNL1        0.0196
      4 C          11.7310   38.9496    8.2970 C.3     1  UNL1        0.0089
      5 C          11.8033   38.9071    9.8288 C.3     1  UNL1        0.0581
      6 C          10.9560   40.0060   10.4874 C.3     1  UNL1        0.1017
      7 N          14.1169   39.7276    9.6001 N.ar    1  UNL1       -0.2348
      8 C          13.2233   38.9717   10.2943 C.ar    1  UNL1        0.0614
      9 C          13.6449   38.2649   11.4286 C.ar    1  UNL1        0.0149
     10 C          14.9778   38.3489   11.8286 C.ar    1  UNL1        0.0041
     11 C          15.8731   39.1312   11.0993 C.ar    1  UNL1        0.0344
     12 C          15.4233   39.8269    9.9689 C.ar    1  UNL1        0.1332
     13 N          16.3037   40.6439    9.1859 N.pl3   1  UNL1       -0.2782
     14 H          17.2677   40.4652    9.2748 H       1  UNL1        0.1555
     15 S          16.9236   42.9880    7.9017 S.2     1  UNL1       -0.0557
     16 N          14.7323   41.7626    7.6534 N.ar    1  UNL1       -0.2228
     17 C          15.9246   41.6935    8.2873 C.ar    1  UNL1        0.1643
     18 C          15.7750   43.6644    6.8774 C.ar    1  UNL1        0.0293
     19 C          14.6407   42.8641    6.8614 C.ar    1  UNL1        0.1030
     20 C          15.9487   44.9242    6.1089 C.3     1  UNL1        0.0399
     21 S           9.8942   42.3636   10.4132 S.O2    1  UNL1        0.0814
     22 O          10.6599   43.6517   10.2928 O.2     1  UNL1       -0.1513
     23 O           9.7727   42.0049   11.8693 O.2     1  UNL1       -0.1513
     24 N           6.6418   43.3847    8.5793 N.ar    1  UNL1       -0.3047
     25 N           7.2261   41.8421   10.0694 N.ar    1  UNL1       -0.2042
     26 C           8.2944   42.5920    9.7331 C.ar    1  UNL1        0.2217
     27 C           7.9515   43.5569    8.8112 C.ar    1  UNL1        0.1172
     28 C           6.2183   42.3576    9.3367 C.ar    1  UNL1        0.1800
     29 C           5.8253   44.1700    7.6738 C.3     1  UNL1        0.1321
@<TRIPOS>BOND
     1    21     1    1
     2    21    26    1
     3    13    17    1
     4    24    28   ar
     5     2     1    1
     6     2     3    1
     7     3     4    1
     8     4     5    1
     9     5     8    1
    10     5     6    1
    11     8     7   ar
    12     9    10   ar
    13    11    12   ar
    14    12    13    1
    15    17    15   ar
    16    18    15   ar
    17    19    16   ar
    18    20    18    1
    19     6     1    1
    20    26    25   ar
    21    27    24   ar
    22    29    24    1
    23    21    22    2
    24    21    23    2
    25     8     9   ar
    26    10    11   ar
    27    12     7   ar
    28    17    16   ar
    29    18    19   ar
    30    26    27   ar
    31    28    25   ar
    32    13    14    1
@<TRIPOS>MOLECULE
MolPort-047-015-083 MCULE-6651060413 PubChem-155985066
 29 32 0 0 0
SMALL
GASTEIGER

@<TRIPOS>ATOM
      1 N           7.5505   40.8588    7.8640 N.3     1  UNL1       -0.1537
      2 C           6.3013   41.3143    8.4866 C.3     1  UNL1        0.0959
      3 C           6.5103   41.8677    9.9073 C.3     1  UNL1        0.0196
      4 C           7.9252   41.6103   10.4213 C.3     1  UNL1        0.0089
      5 C           8.9715   42.1306    9.4274 C.3     1  UNL1        0.0581
      6 C           8.5462   41.9253    7.9659 C.3     1  UNL1        0.1017
      7 N          11.2604   41.5483    8.7205 N.ar    1  UNL1       -0.2348
      8 C          10.3070   41.5108    9.6908 C.ar    1  UNL1        0.0614
      9 C          10.5875   40.8918   10.9164 C.ar    1  UNL1        0.0149
     10 C          11.8438   40.3232   11.1221 C.ar    1  UNL1        0.0041
     11 C          12.8031   40.3759   10.1110 C.ar    1  UNL1        0.0344
     12 C          12.4944   41.0013    8.8952 C.ar    1  UNL1        0.1332
     13 N          13.4453   41.0816    7.8252 N.pl3   1  UNL1       -0.2782
     14 H          13.1762   40.6864    6.9646 H       1  UNL1        0.1555
     15 S          15.1808   43.0365    6.9919 S.2     1  UNL1       -0.0557
     16 N          15.7649   41.2207    8.6431 N.ar    1  UNL1       -0.2228
     17 C          14.7469   41.6778    7.8797 C.ar    1  UNL1        0.1643
     18 C          16.7419   43.0362    7.6155 C.ar    1  UNL1        0.0293
     19 C          16.8864   41.9765    8.5007 C.ar    1  UNL1        0.1030
     20 C          17.8020   44.0189    7.2714 C.3     1  UNL1        0.0399
     21 S           7.2371   40.5881    6.1799 S.O2    1  UNL1        0.0814
     22 O           6.6341   41.8228    5.5702 O.2     1  UNL1       -0.1513
     23 O           6.2776   39.4423    6.0065 O.2     1  UNL1       -0.1513
     24 N          10.2959   39.1602    4.2853 N.ar    1  UNL1       -0.3047
     25 N           9.7348   41.1148    5.1832 N.ar    1  UNL1       -0.2042
     26 C           8.7377   40.2233    5.3495 C.ar    1  UNL1        0.2217
     27 C           9.0679   39.0031    4.8012 C.ar    1  UNL1        0.1172
     28 C          10.6851   40.4258    4.5196 C.ar    1  UNL1        0.1800
     29 C          11.0692   38.1434    3.5987 C.3     1  UNL1        0.1321
@<TRIPOS>BOND
     1    21     1    1
     2    21    26    1
     3    13    17    1
     4    24    28   ar
     5     2     1    1
     6     2     3    1
     7     3     4    1
     8     4     5    1
     9     5     8    1
    10     5     6    1
    11     8     7   ar
    12     9    10   ar
    13    11    12   ar
    14    12    13    1
    15    17    15   ar
    16    18    15   ar
    17    19    16   ar
    18    20    18    1
    19     6     1    1
    20    26    25   ar
    21    27    24   ar
    22    29    24    1
    23    21    22    2
    24    21    23    2
    25     8     9   ar
    26    10    11   ar
    27    12     7   ar
    28    17    16   ar
    29    18    19   ar
    30    26    27   ar
    31    28    25   ar
    32    13    14    1
@<TRIPOS>MOLECULE
MolPort-047-015-083 MCULE-6651060413 PubChem-155985066
 29 32 0 0 0
SMALL
GASTEIGER

@<TRIPOS>ATOM
      1 N          15.8126   38.4716    9.1635 N.3     1  UNL1       -0.1537
      2 C          16.9488   38.2366   10.0632 C.3     1  UNL1        0.0959
      3 C          17.7907   39.5022   10.3037 C.3     1  UNL1        0.0196
      4 C          17.3816   40.6479    9.3804 C.3     1  UNL1        0.0089
      5 C          15.8744   40.9168    9.4769 C.3     1  UNL1        0.0581
      6 C          15.0575   39.6272    9.6467 C.3     1  UNL1        0.1017
      7 N          14.2187   41.3693    7.7072 N.ar    1  UNL1       -0.2348
      8 C          15.3995   41.7023    8.2960 C.ar    1  UNL1        0.0614
      9 C          16.1522   42.7696    7.7878 C.ar    1  UNL1        0.0149
     10 C          15.6764   43.4755    6.6836 C.ar    1  UNL1        0.0041
     11 C          14.4627   43.1137    6.0992 C.ar    1  UNL1        0.0344
     12 C          13.7314   42.0416    6.6287 C.ar    1  UNL1        0.1332
     13 N          12.4792   41.6307    6.0644 N.pl3   1  UNL1       -0.2782
     14 H          12.5154   41.1815    5.1890 H       1  UNL1        0.1555
     15 S           9.7492   41.5294    5.8083 S.2     1  UNL1       -0.0557
     16 N          10.9594   42.2112    7.9143 N.ar    1  UNL1       -0.2228
     17 C          11.1805   41.8064    6.6433 C.ar    1  UNL1        0.1643
     18 C           8.8073   41.9474    7.1364 C.ar    1  UNL1        0.0293
     19 C           9.6321   42.2927    8.1985 C.ar    1  UNL1        0.1030
     20 C           7.3218   41.9468    7.1672 C.3     1  UNL1        0.0399
     21 S          14.7716   37.0872    9.2492 S.O2    1  UNL1        0.0814
     22 O          15.2213   36.1813   10.3614 O.2     1  UNL1       -0.1513
     23 O          14.8131   36.3236    7.9536 O.2     1  UNL1       -0.1513
     24 N          11.4201   38.8164   10.1219 N.ar    1  UNL1       -0.3047
     25 N          12.0554   36.7919    9.4591 N.ar    1  UNL1       -0.2042
     26 C          13.1267   37.6022    9.5704 C.ar    1  UNL1        0.2217
     27 C          12.7533   38.8627    9.9833 C.ar    1  UNL1        0.1172
     28 C          11.0134   37.5742    9.8064 C.ar    1  UNL1        0.1800
     29 C          10.5675   39.9121   10.5412 C.3     1  UNL1        0.1321
@<TRIPOS>BOND
     1    21     1    1
     2    21    26    1
     3    13    17    1
     4    24    28   ar
     5     2     1    1
     6     2     3    1
     7     3     4    1
     8     4     5    1
     9     5     8    1
    10     5     6    1
    11     8     7   ar
    12     9    10   ar
    13    11    12   ar
    14    12    13    1
    15    17    15   ar
    16    18    15   ar
    17    19    16   ar
    18    20    18    1
    19     6     1    1
    20    26    25   ar
    21    27    24   ar
    22    29    24    1
    23    21    22    2
    24    21    23    2
    25     8     9   ar
    26    10    11   ar
    27    12     7   ar
    28    17    16   ar
    29    18    19   ar
    30    26    27   ar
    31    28    25   ar
    32    13    14    1
