@<TRIPOS>MOLECULE
Molport-053-324-447 PubChem-110111601
 26 29 0 0 0
SMALL
GASTEIGER

@<TRIPOS>ATOM
      1 C          11.6156   39.5385    8.3192 C.ar    1  UNL1       -0.0168
      2 C          12.3125   40.2741    7.3580 C.ar    1  UNL1        0.0303
      3 C          11.7819   41.4794    6.8911 C.ar    1  UNL1        0.1340
      4 C           9.8928   41.2281    8.3151 C.ar    1  UNL1        0.1000
      5 C          10.3926   40.0202    8.8036 C.ar    1  UNL1        0.0165
      6 N          10.5905   41.9255    7.3791 N.ar    1  UNL1       -0.2290
      7 C          11.7534   36.3708   10.4778 C.3     1  UNL1        0.0177
      8 C          11.1362   37.4119    9.5406 C.3     1  UNL1        0.0072
      9 C          12.1930   38.2515    8.8141 C.3     1  UNL1        0.0385
     10 C          13.4187   38.4960    9.7043 C.3     1  UNL1        0.0767
     11 C          13.1944   36.0643   10.0788 C.3     1  UNL1        0.0724
     12 N          14.0463   37.2554   10.2030 N.3     1  UNL1       -0.2674
     13 C          15.2303   37.0090    9.3941 C.3     1  UNL1        0.1192
     14 C          16.3504   37.8860    9.8400 C.ar    1  UNL1        0.0823
     15 C          17.4278   37.3916   10.5679 C.ar    1  UNL1        0.0530
     16 C          17.4630   39.8422   10.0533 C.ar    1  UNL1        0.1341
     17 N          16.3707   39.2189    9.5629 N.ar    1  UNL1       -0.2392
     18 S          18.4213   38.7177   10.8484 S.2     1  UNL1       -0.0643
     19 N          12.5088   42.2241    5.9063 N.pl3   1  UNL1       -0.2680
     20 H          12.1574   42.2063    4.9869 H       1  UNL1        0.1565
     21 C          13.6976   42.9923    6.1295 C.ar    1  UNL1        0.2218
     22 C          14.9094   44.9922    5.7669 C.ar    1  UNL1        0.1034
     23 C          15.9659   44.5064    6.5350 C.ar    1  UNL1        0.0414
     24 C          15.8466   43.2354    7.0937 C.ar    1  UNL1        0.1034
     25 N          13.7998   44.2309    5.5786 N.ar    1  UNL1       -0.2120
     26 N          14.7213   42.5043    6.8830 N.ar    1  UNL1       -0.2120
@<TRIPOS>BOND
     1     7     8    1
     2     8     9    1
     3     9    10    1
     4     9     1    1
     5    10    12    1
     6    11    12    1
     7    11     7    1
     8    13    12    1
     9    13    14    1
    10    14    17   ar
    11    15    18   ar
    12    16    18   ar
    13     2     3   ar
    14     3    19    1
    15     4     6   ar
    16     5     1   ar
    17    21    26   ar
    18    22    25   ar
    19    23    24   ar
    20    19    21    1
    21    14    15   ar
    22    16    17   ar
    23     1     2   ar
    24     3     6   ar
    25     4     5   ar
    26    21    25   ar
    27    22    23   ar
    28    24    26   ar
    29    19    20    1
@<TRIPOS>MOLECULE
Molport-053-324-447 PubChem-110111601
 26 29 0 0 0
SMALL
GASTEIGER

@<TRIPOS>ATOM
      1 C          11.7137   40.0596    8.6714 C.ar    1  UNL1       -0.0168
      2 C          12.4625   40.7267    7.6992 C.ar    1  UNL1        0.0303
      3 C          11.8273   41.6098    6.8225 C.ar    1  UNL1        0.1340
      4 C           9.7326   41.1754    7.8633 C.ar    1  UNL1        0.1000
      5 C          10.3339   40.2862    8.7551 C.ar    1  UNL1        0.0165
      6 N          10.4837   41.8123    6.9256 N.ar    1  UNL1       -0.2290
      7 C          13.8788   39.0876   11.6848 C.3     1  UNL1        0.0177
      8 C          12.7647   39.8118   10.9248 C.3     1  UNL1        0.0072
      9 C          12.4033   39.1188    9.6063 C.3     1  UNL1        0.0385
     10 C          13.6393   38.4880    8.9515 C.3     1  UNL1        0.0767
     11 C          13.9819   37.6303   11.2428 C.3     1  UNL1        0.0724
     12 N          14.3477   37.5289    9.8230 N.3     1  UNL1       -0.2674
     13 C          13.9780   36.1898    9.3905 C.3     1  UNL1        0.1192
     14 C          15.1900   35.4328    8.9654 C.ar    1  UNL1        0.0823
     15 C          16.3951   36.0687    8.6863 C.ar    1  UNL1        0.0530
     16 C          16.3646   33.5783    8.4260 C.ar    1  UNL1        0.1341
     17 N          15.1750   34.0789    8.8215 N.ar    1  UNL1       -0.2392
     18 S          17.4556   34.8405    8.2491 S.2     1  UNL1       -0.0643
     19 N          12.6086   42.2883    5.8315 N.pl3   1  UNL1       -0.2680
     20 H          12.3150   42.1985    4.8961 H       1  UNL1        0.1565
     21 C          13.7756   43.0848    6.0694 C.ar    1  UNL1        0.2218
     22 C          15.9142   43.2910    7.0612 C.ar    1  UNL1        0.1034
     23 C          16.0408   44.5815    6.5503 C.ar    1  UNL1        0.0414
     24 C          14.9931   45.0964    5.7894 C.ar    1  UNL1        0.1034
     25 N          14.7901   42.5693    6.8132 N.ar    1  UNL1       -0.2120
     26 N          13.8850   44.3440    5.5630 N.ar    1  UNL1       -0.2120
@<TRIPOS>BOND
     1     7     8    1
     2     8     9    1
     3     9    10    1
     4     9     1    1
     5    10    12    1
     6    11    12    1
     7    11     7    1
     8    13    12    1
     9    13    14    1
    10    14    17   ar
    11    15    18   ar
    12    16    18   ar
    13     2     3   ar
    14     3    19    1
    15     4     6   ar
    16     5     1   ar
    17    21    26   ar
    18    22    25   ar
    19    23    24   ar
    20    19    21    1
    21    14    15   ar
    22    16    17   ar
    23     1     2   ar
    24     3     6   ar
    25     4     5   ar
    26    21    25   ar
    27    22    23   ar
    28    24    26   ar
    29    19    20    1
@<TRIPOS>MOLECULE
Molport-053-324-447 PubChem-110111601
 26 29 0 0 0
SMALL
GASTEIGER

@<TRIPOS>ATOM
      1 C           9.0187   40.3878    7.3822 C.ar    1  UNL1       -0.0168
      2 C           8.0522   41.2597    7.8886 C.ar    1  UNL1        0.0303
      3 C           6.7155   41.1037    7.5128 C.ar    1  UNL1        0.1340
      4 C           7.2900   39.2400    6.1505 C.ar    1  UNL1        0.1000
      5 C           8.6342   39.3665    6.5039 C.ar    1  UNL1        0.0165
      6 N           6.3682   40.1018    6.6571 N.ar    1  UNL1       -0.2290
      7 C          11.9019   40.9622    9.8460 C.3     1  UNL1        0.0177
      8 C          10.6239   40.3237    9.2961 C.3     1  UNL1        0.0072
      9 C          10.4457   40.5615    7.7924 C.3     1  UNL1        0.0385
     10 C          10.9810   41.9388    7.3790 C.3     1  UNL1        0.0767
     11 C          12.9145   41.2036    8.7297 C.3     1  UNL1        0.0724
     12 N          12.3970   42.1569    7.7381 N.3     1  UNL1       -0.2674
     13 C          13.1873   41.9742    6.5302 C.3     1  UNL1        0.1192
     14 C          14.1769   43.0804    6.3899 C.ar    1  UNL1        0.0823
     15 C          15.4545   42.9989    6.9339 C.ar    1  UNL1        0.0530
     16 C          14.8980   45.1126    5.7117 C.ar    1  UNL1        0.1341
     17 N          13.8757   44.2311    5.7274 N.ar    1  UNL1       -0.2392
     18 S          16.2002   44.4521    6.5381 S.2     1  UNL1       -0.0643
     19 N           5.7348   42.0044    8.0417 N.pl3   1  UNL1       -0.2680
     20 H           5.5818   42.8384    7.5413 H       1  UNL1        0.1565
     21 C           4.9551   41.8096    9.2279 C.ar    1  UNL1        0.2218
     22 C           4.7933   40.9289   11.4183 C.ar    1  UNL1        0.1034
     23 C           3.4916   41.4136   11.5308 C.ar    1  UNL1        0.0414
     24 C           2.9481   42.1043   10.4495 C.ar    1  UNL1        0.1034
     25 N           5.4984   41.1343   10.2751 N.ar    1  UNL1       -0.2120
     26 N           3.6845   42.2897    9.3231 N.ar    1  UNL1       -0.2120
@<TRIPOS>BOND
     1     7     8    1
     2     8     9    1
     3     9    10    1
     4     9     1    1
     5    10    12    1
     6    11    12    1
     7    11     7    1
     8    13    12    1
     9    13    14    1
    10    14    17   ar
    11    15    18   ar
    12    16    18   ar
    13     2     3   ar
    14     3    19    1
    15     4     6   ar
    16     5     1   ar
    17    21    26   ar
    18    22    25   ar
    19    23    24   ar
    20    19    21    1
    21    14    15   ar
    22    16    17   ar
    23     1     2   ar
    24     3     6   ar
    25     4     5   ar
    26    21    25   ar
    27    22    23   ar
    28    24    26   ar
    29    19    20    1
@<TRIPOS>MOLECULE
Molport-053-324-447 PubChem-110111601
 26 29 0 0 0
SMALL
GASTEIGER

@<TRIPOS>ATOM
      1 C          11.6918   41.1060   10.1442 C.ar    1  UNL1       -0.0168
      2 C          12.2311   41.6692    8.9854 C.ar    1  UNL1        0.0303
      3 C          13.4680   41.2244    8.5115 C.ar    1  UNL1        0.1340
      4 C          13.6313   39.6804   10.3141 C.ar    1  UNL1        0.1000
      5 C          12.3988   40.1006   10.8161 C.ar    1  UNL1        0.0165
      6 N          14.1349   40.2448    9.1840 N.ar    1  UNL1       -0.2290
      7 C           8.6926   41.2371   12.5318 C.3     1  UNL1        0.0177
      8 C          10.1668   41.2337   12.1195 C.3     1  UNL1        0.0072
      9 C          10.3667   41.5872   10.6415 C.3     1  UNL1        0.0385
     10 C           9.2179   41.0472    9.7794 C.3     1  UNL1        0.0767
     11 C           7.8588   42.0764   11.5674 C.3     1  UNL1        0.0724
     12 N           7.8838   41.5112   10.2110 N.3     1  UNL1       -0.2674
     13 C           7.4779   42.5762    9.3066 C.3     1  UNL1        0.1192
     14 C           5.9907   42.6582    9.2420 C.ar    1  UNL1        0.0823
     15 C           5.1822   41.5455    9.4494 C.ar    1  UNL1        0.0530
     16 C           4.0053   43.6988    8.9495 C.ar    1  UNL1        0.1341
     17 N           5.3490   43.8275    8.9687 N.ar    1  UNL1       -0.2392
     18 S           3.6060   42.1023    9.2759 S.2     1  UNL1       -0.0643
     19 N          14.0080   41.8100    7.3207 N.pl3   1  UNL1       -0.2680
     20 H          13.5194   41.6430    6.4824 H       1  UNL1        0.1565
     21 C          15.1898   42.6151    7.2310 C.ar    1  UNL1        0.2218
     22 C          17.4338   42.9904    7.8815 C.ar    1  UNL1        0.1034
     23 C          17.4866   44.1337    7.0863 C.ar    1  UNL1        0.0414
     24 C          16.3486   44.4899    6.3652 C.ar    1  UNL1        0.1034
     25 N          16.2927   42.2552    7.9396 N.ar    1  UNL1       -0.2120
     26 N          15.2263   43.7291    6.4490 N.ar    1  UNL1       -0.2120
@<TRIPOS>BOND
     1     7     8    1
     2     8     9    1
     3     9    10    1
     4     9     1    1
     5    10    12    1
     6    11    12    1
     7    11     7    1
     8    13    12    1
     9    13    14    1
    10    14    17   ar
    11    15    18   ar
    12    16    18   ar
    13     2     3   ar
    14     3    19    1
    15     4     6   ar
    16     5     1   ar
    17    21    26   ar
    18    22    25   ar
    19    23    24   ar
    20    19    21    1
    21    14    15   ar
    22    16    17   ar
    23     1     2   ar
    24     3     6   ar
    25     4     5   ar
    26    21    25   ar
    27    22    23   ar
    28    24    26   ar
    29    19    20    1
@<TRIPOS>MOLECULE
Molport-053-324-447 PubChem-110111601
 26 29 0 0 0
SMALL
GASTEIGER

@<TRIPOS>ATOM
      1 C           9.8344   41.4793    9.1210 C.ar    1  UNL1       -0.0168
      2 C           8.8520   41.0823   10.0309 C.ar    1  UNL1        0.0303
      3 C           7.5857   41.6706    9.9819 C.ar    1  UNL1        0.1340
      4 C           8.2605   43.0288    8.1489 C.ar    1  UNL1        0.1000
      5 C           9.5360   42.4630    8.1693 C.ar    1  UNL1        0.0165
      6 N           7.3216   42.6251    9.0459 N.ar    1  UNL1       -0.2290
      7 C          12.8234   39.7749   10.8162 C.3     1  UNL1        0.0177
      8 C          11.3542   40.0172   10.4612 C.3     1  UNL1        0.0072
      9 C          11.1853   40.8419    9.1802 C.3     1  UNL1        0.0385
     10 C          12.3011   41.8855    9.0385 C.3     1  UNL1        0.0767
     11 C          13.7147   39.9352    9.5876 C.3     1  UNL1        0.0724
     12 N          13.6602   41.3079    9.0655 N.3     1  UNL1       -0.2674
     13 C          14.1388   41.2525    7.6926 C.3     1  UNL1        0.1192
     14 C          15.1867   42.2894    7.4702 C.ar    1  UNL1        0.0823
     15 C          15.0019   43.3446    6.5829 C.ar    1  UNL1        0.0530
     16 C          17.1986   43.2714    7.7830 C.ar    1  UNL1        0.1341
     17 N          16.3824   42.2504    8.1203 N.ar    1  UNL1       -0.2392
     18 S          16.4223   44.2400    6.6543 S.2     1  UNL1       -0.0643
     19 N           6.5874   41.2520   10.9205 N.pl3   1  UNL1       -0.2680
     20 H           6.9076   40.8423   11.7565 H       1  UNL1        0.1565
     21 C           5.1686   41.3715   10.7608 C.ar    1  UNL1        0.2218
     22 C           3.0996   42.1579   11.5979 C.ar    1  UNL1        0.1034
     23 C           2.4363   41.6272   10.4931 C.ar    1  UNL1        0.0414
     24 C           3.1895   40.9641    9.5262 C.ar    1  UNL1        0.1034
     25 N           4.4467   42.0215   11.7118 N.ar    1  UNL1       -0.2120
     26 N           4.5347   40.8483    9.6753 N.ar    1  UNL1       -0.2120
@<TRIPOS>BOND
     1     7     8    1
     2     8     9    1
     3     9    10    1
     4     9     1    1
     5    10    12    1
     6    11    12    1
     7    11     7    1
     8    13    12    1
     9    13    14    1
    10    14    17   ar
    11    15    18   ar
    12    16    18   ar
    13     2     3   ar
    14     3    19    1
    15     4     6   ar
    16     5     1   ar
    17    21    26   ar
    18    22    25   ar
    19    23    24   ar
    20    19    21    1
    21    14    15   ar
    22    16    17   ar
    23     1     2   ar
    24     3     6   ar
    25     4     5   ar
    26    21    25   ar
    27    22    23   ar
    28    24    26   ar
    29    19    20    1
@<TRIPOS>MOLECULE
Molport-053-324-447 PubChem-110111601
 26 29 0 0 0
SMALL
GASTEIGER

@<TRIPOS>ATOM
      1 C          14.8217   39.3674   10.0653 C.ar    1  UNL1       -0.0168
      2 C          15.1670   40.4065    9.1984 C.ar    1  UNL1        0.0303
      3 C          16.4730   40.9032    9.1999 C.ar    1  UNL1        0.1340
      4 C          17.0859   39.3557   10.8997 C.ar    1  UNL1        0.1000
      5 C          15.7912   38.8355   10.9253 C.ar    1  UNL1        0.0165
      6 N          17.3969   40.3678   10.0463 N.ar    1  UNL1       -0.2290
      7 C          12.0897   36.6950   10.3932 C.3     1  UNL1        0.0177
      8 C          13.3267   37.5026   10.7943 C.3     1  UNL1        0.0072
      9 C          13.4224   38.8414   10.0542 C.3     1  UNL1        0.0385
     10 C          12.8812   38.7267    8.6230 C.3     1  UNL1        0.0767
     11 C          11.0185   37.6011    9.7921 C.3     1  UNL1        0.0724
     12 N          11.4906   38.2341    8.5526 N.3     1  UNL1       -0.2674
     13 C          10.6310   39.3841    8.3167 C.3     1  UNL1        0.1192
     14 C          10.3336   39.5150    6.8617 C.ar    1  UNL1        0.0823
     15 C           9.3183   38.7877    6.2493 C.ar    1  UNL1        0.0530
     16 C          10.6319   40.3257    4.7727 C.ar    1  UNL1        0.1341
     17 N          11.0477   40.3492    6.0568 N.ar    1  UNL1       -0.2392
     18 S           9.3546   39.2468    4.6330 S.2     1  UNL1       -0.0643
     19 N          16.8131   41.9681    8.3038 N.pl3   1  UNL1       -0.2680
     20 H          17.7619   42.2275    8.2618 H       1  UNL1        0.1565
     21 C          15.9068   42.6922    7.4628 C.ar    1  UNL1        0.2218
     22 C          13.8396   42.7697    6.3137 C.ar    1  UNL1        0.1034
     23 C          14.1319   44.0503    5.8481 C.ar    1  UNL1        0.0414
     24 C          15.3444   44.6277    6.2199 C.ar    1  UNL1        0.1034
     25 N          14.7273   42.1167    7.1086 N.ar    1  UNL1       -0.2120
     26 N          16.2061   43.9431    7.0162 N.ar    1  UNL1       -0.2120
@<TRIPOS>BOND
     1     7     8    1
     2     8     9    1
     3     9    10    1
     4     9     1    1
     5    10    12    1
     6    11    12    1
     7    11     7    1
     8    13    12    1
     9    13    14    1
    10    14    17   ar
    11    15    18   ar
    12    16    18   ar
    13     2     3   ar
    14     3    19    1
    15     4     6   ar
    16     5     1   ar
    17    21    26   ar
    18    22    25   ar
    19    23    24   ar
    20    19    21    1
    21    14    15   ar
    22    16    17   ar
    23     1     2   ar
    24     3     6   ar
    25     4     5   ar
    26    21    25   ar
    27    22    23   ar
    28    24    26   ar
    29    19    20    1
@<TRIPOS>MOLECULE
Molport-053-324-447 PubChem-110111601
 26 29 0 0 0
SMALL
GASTEIGER

@<TRIPOS>ATOM
      1 C          11.7821   41.1962    9.8915 C.ar    1  UNL1       -0.0168
      2 C          12.8580   41.4223    9.0300 C.ar    1  UNL1        0.0303
      3 C          14.0498   40.7161    9.2120 C.ar    1  UNL1        0.1340
      4 C          13.1172   39.5746   11.0794 C.ar    1  UNL1        0.1000
      5 C          11.9123   40.2622   10.9274 C.ar    1  UNL1        0.0165
      6 N          14.1499   39.8130   10.2274 N.ar    1  UNL1       -0.2290
      7 C           9.4108   44.1940   10.2122 C.3     1  UNL1        0.0177
      8 C          10.7183   43.4571    9.9111 C.3     1  UNL1        0.0072
      9 C          10.5105   41.9551    9.6868 C.3     1  UNL1        0.0385
     10 C           9.3859   41.4093   10.5766 C.3     1  UNL1        0.0767
     11 C           8.2089   43.4000    9.7076 C.3     1  UNL1        0.0724
     12 N           8.0966   42.1073   10.3977 N.3     1  UNL1       -0.2674
     13 C           7.2533   41.2615    9.5669 C.3     1  UNL1        0.1192
     14 C           5.8327   41.3577   10.0089 C.ar    1  UNL1        0.0823
     15 C           4.7738   41.2397    9.1147 C.ar    1  UNL1        0.0530
     16 C           4.1673   41.6342   11.5121 C.ar    1  UNL1        0.1341
     17 N           5.5009   41.5739   11.3115 N.ar    1  UNL1       -0.2392
     18 S           3.3848   41.4173   10.0440 S.2     1  UNL1       -0.0643
     19 N          15.1442   40.9572    8.3194 N.pl3   1  UNL1       -0.2680
     20 H          15.7626   40.2075    8.1620 H       1  UNL1        0.1565
     21 C          15.4264   42.1832    7.6337 C.ar    1  UNL1        0.2218
     22 C          16.8026   44.0929    7.3911 C.ar    1  UNL1        0.1034
     23 C          16.0080   44.5478    6.3404 C.ar    1  UNL1        0.0414
     24 C          14.9117   43.7767    5.9594 C.ar    1  UNL1        0.1034
     25 N          16.4996   42.9250    8.0158 N.ar    1  UNL1       -0.2120
     26 N          14.6411   42.6144    6.6084 N.ar    1  UNL1       -0.2120
@<TRIPOS>BOND
     1     7     8    1
     2     8     9    1
     3     9    10    1
     4     9     1    1
     5    10    12    1
     6    11    12    1
     7    11     7    1
     8    13    12    1
     9    13    14    1
    10    14    17   ar
    11    15    18   ar
    12    16    18   ar
    13     2     3   ar
    14     3    19    1
    15     4     6   ar
    16     5     1   ar
    17    21    26   ar
    18    22    25   ar
    19    23    24   ar
    20    19    21    1
    21    14    15   ar
    22    16    17   ar
    23     1     2   ar
    24     3     6   ar
    25     4     5   ar
    26    21    25   ar
    27    22    23   ar
    28    24    26   ar
    29    19    20    1
@<TRIPOS>MOLECULE
Molport-053-324-447 PubChem-110111601
 26 29 0 0 0
SMALL
GASTEIGER

@<TRIPOS>ATOM
      1 C           9.8308   41.6915    7.2124 C.ar    1  UNL1       -0.0168
      2 C          11.1727   41.7983    7.5848 C.ar    1  UNL1        0.0303
      3 C          12.1717   41.4009    6.6924 C.ar    1  UNL1        0.1340
      4 C          10.5278   40.8005    5.0809 C.ar    1  UNL1        0.1000
      5 C           9.5042   41.1875    5.9468 C.ar    1  UNL1        0.0165
      6 N          11.8267   40.9143    5.4673 N.ar    1  UNL1       -0.2290
      7 C           8.4579   43.0116   10.5418 C.3     1  UNL1        0.0177
      8 C           9.3571   42.9746    9.3035 C.3     1  UNL1        0.0072
      9 C           8.7697   42.1217    8.1734 C.3     1  UNL1        0.0385
     10 C           7.9980   40.9171    8.7281 C.3     1  UNL1        0.0767
     11 C           7.0176   42.6587   10.1803 C.3     1  UNL1        0.0724
     12 N           6.9185   41.2854    9.6665 N.3     1  UNL1       -0.2674
     13 C           5.6605   41.2002    8.9405 C.3     1  UNL1        0.1192
     14 C           5.2001   42.5623    8.5461 C.ar    1  UNL1        0.0823
     15 C           4.0439   43.1296    9.0715 C.ar    1  UNL1        0.0530
     16 C           5.3102   44.5161    7.4146 C.ar    1  UNL1        0.1341
     17 N           5.8862   43.3170    7.6441 N.ar    1  UNL1       -0.2392
     18 S           3.9213   44.6413    8.3474 S.2     1  UNL1       -0.0643
     19 N          13.5439   41.5179    7.0875 N.pl3   1  UNL1       -0.2680
     20 H          13.9259   40.7658    7.5950 H       1  UNL1        0.1565
     21 C          14.4144   42.6232    6.8159 C.ar    1  UNL1        0.2218
     22 C          14.7852   44.6774    5.7013 C.ar    1  UNL1        0.1034
     23 C          16.0555   44.7698    6.2672 C.ar    1  UNL1        0.0414
     24 C          16.4752   43.7494    7.1183 C.ar    1  UNL1        0.1034
     25 N          13.9913   43.6116    5.9840 N.ar    1  UNL1       -0.2120
     26 N          15.6526   42.6998    7.3769 N.ar    1  UNL1       -0.2120
@<TRIPOS>BOND
     1     7     8    1
     2     8     9    1
     3     9    10    1
     4     9     1    1
     5    10    12    1
     6    11    12    1
     7    11     7    1
     8    13    12    1
     9    13    14    1
    10    14    17   ar
    11    15    18   ar
    12    16    18   ar
    13     2     3   ar
    14     3    19    1
    15     4     6   ar
    16     5     1   ar
    17    21    26   ar
    18    22    25   ar
    19    23    24   ar
    20    19    21    1
    21    14    15   ar
    22    16    17   ar
    23     1     2   ar
    24     3     6   ar
    25     4     5   ar
    26    21    25   ar
    27    22    23   ar
    28    24    26   ar
    29    19    20    1
@<TRIPOS>MOLECULE
Molport-053-324-447 PubChem-110111601
 26 29 0 0 0
SMALL
GASTEIGER

@<TRIPOS>ATOM
      1 C          13.5967   39.6372   10.2554 C.ar    1  UNL1       -0.0168
      2 C          14.6243   40.2773    9.5590 C.ar    1  UNL1        0.0303
      3 C          15.9512   40.0816    9.9504 C.ar    1  UNL1        0.1340
      4 C          15.2472   38.6327   11.7010 C.ar    1  UNL1        0.1000
      5 C          13.9108   38.8056   11.3380 C.ar    1  UNL1        0.0165
      6 N          16.2294   39.2673   11.0069 N.ar    1  UNL1       -0.2290
      7 C          10.3351   38.7953    8.4206 C.3     1  UNL1        0.0177
      8 C          11.5528   38.5498    9.3151 C.3     1  UNL1        0.0072
      9 C          12.1805   39.8511    9.8271 C.3     1  UNL1        0.0385
     10 C          12.0771   40.9687    8.7808 C.3     1  UNL1        0.0767
     11 C           9.7393   40.1767    8.6782 C.3     1  UNL1        0.0724
     12 N          10.6945   41.2407    8.3383 N.3     1  UNL1       -0.2674
     13 C          10.2443   42.4419    9.0247 C.3     1  UNL1        0.1192
     14 C           9.2439   42.0917   10.0733 C.ar    1  UNL1        0.0823
     15 C           9.6186   41.8038   11.3815 C.ar    1  UNL1        0.0530
     16 C           7.1686   41.6922   10.8753 C.ar    1  UNL1        0.1341
     17 N           7.9117   42.0287    9.7997 N.ar    1  UNL1       -0.2392
     18 S           8.1850   41.4660   12.1909 S.2     1  UNL1       -0.0643
     19 N          16.9949   40.7433    9.2254 N.pl3   1  UNL1       -0.2680
     20 H          17.8871   40.3280    9.2527 H       1  UNL1        0.1565
     21 C          16.8666   41.9507    8.4646 C.ar    1  UNL1        0.2218
     22 C          15.5630   43.3049    7.0271 C.ar    1  UNL1        0.1034
     23 C          16.5758   44.2615    6.9889 C.ar    1  UNL1        0.0414
     24 C          17.7397   44.0207    7.7162 C.ar    1  UNL1        0.1034
     25 N          15.7252   42.1725    7.7603 N.ar    1  UNL1       -0.2120
     26 N          17.8647   42.8764    8.4376 N.ar    1  UNL1       -0.2120
@<TRIPOS>BOND
     1     7     8    1
     2     8     9    1
     3     9    10    1
     4     9     1    1
     5    10    12    1
     6    11    12    1
     7    11     7    1
     8    13    12    1
     9    13    14    1
    10    14    17   ar
    11    15    18   ar
    12    16    18   ar
    13     2     3   ar
    14     3    19    1
    15     4     6   ar
    16     5     1   ar
    17    21    26   ar
    18    22    25   ar
    19    23    24   ar
    20    19    21    1
    21    14    15   ar
    22    16    17   ar
    23     1     2   ar
    24     3     6   ar
    25     4     5   ar
    26    21    25   ar
    27    22    23   ar
    28    24    26   ar
    29    19    20    1
@<TRIPOS>MOLECULE
Molport-053-324-447 PubChem-110111601
 26 29 0 0 0
SMALL
GASTEIGER

@<TRIPOS>ATOM
      1 C           9.4359   41.3702    6.7087 C.ar    1  UNL1       -0.0168
      2 C          10.5759   41.3894    7.5153 C.ar    1  UNL1        0.0303
      3 C          11.8037   40.9822    6.9871 C.ar    1  UNL1        0.1340
      4 C          10.7815   40.5436    4.8841 C.ar    1  UNL1        0.1000
      5 C           9.5391   40.9431    5.3786 C.ar    1  UNL1        0.0165
      6 N          11.8765   40.5714    5.6899 N.ar    1  UNL1       -0.2290
      7 C           6.4922   43.7657    7.2648 C.3     1  UNL1        0.0177
      8 C           7.5241   42.9614    6.4701 C.3     1  UNL1        0.0072
      9 C           8.1276   41.8103    7.2827 C.3     1  UNL1        0.0385
     10 C           8.2668   42.1870    8.7636 C.3     1  UNL1        0.0767
     11 C           5.9398   42.9455    8.4275 C.3     1  UNL1        0.0724
     12 N           6.9972   42.6072    9.3905 N.3     1  UNL1       -0.2674
     13 C           6.5049   41.4851   10.1751 C.3     1  UNL1        0.1192
     14 C           5.0189   41.5434   10.2813 C.ar    1  UNL1        0.0823
     15 C           4.3809   42.1837   11.3385 C.ar    1  UNL1        0.0530
     16 C           2.8981   41.1210    9.6229 C.ar    1  UNL1        0.1341
     17 N           4.2110   40.9648    9.3506 N.ar    1  UNL1       -0.2392
     18 S           2.7368   41.9922   11.0476 S.2     1  UNL1       -0.0643
     19 N          12.9649   41.0090    7.8259 N.pl3   1  UNL1       -0.2680
     20 H          12.9659   40.4043    8.6028 H       1  UNL1        0.1565
     21 C          14.1249   41.8302    7.6440 C.ar    1  UNL1        0.2218
     22 C          15.1135   43.7425    6.6615 C.ar    1  UNL1        0.1034
     23 C          16.3313   43.4404    7.2682 C.ar    1  UNL1        0.0414
     24 C          16.4055   42.3035    8.0705 C.ar    1  UNL1        0.1034
     25 N          14.0376   42.9366    6.8589 N.ar    1  UNL1       -0.2120
     26 N          15.3077   41.5224    8.2440 N.ar    1  UNL1       -0.2120
@<TRIPOS>BOND
     1     7     8    1
     2     8     9    1
     3     9    10    1
     4     9     1    1
     5    10    12    1
     6    11    12    1
     7    11     7    1
     8    13    12    1
     9    13    14    1
    10    14    17   ar
    11    15    18   ar
    12    16    18   ar
    13     2     3   ar
    14     3    19    1
    15     4     6   ar
    16     5     1   ar
    17    21    26   ar
    18    22    25   ar
    19    23    24   ar
    20    19    21    1
    21    14    15   ar
    22    16    17   ar
    23     1     2   ar
    24     3     6   ar
    25     4     5   ar
    26    21    25   ar
    27    22    23   ar
    28    24    26   ar
    29    19    20    1
