@<TRIPOS>MOLECULE
MolPort-039-210-480 CSSS03437028746 MCULE-7076928754 PubChem-121017031
 28 30 0 0 0
SMALL
GASTEIGER

@<TRIPOS>ATOM
      1 O          13.2978   39.7662   11.0946 O.2     1  UNL1       -0.1499
      2 O          13.3160   38.0860    9.2951 O.2     1  UNL1       -0.1499
      3 S          12.8862   39.4742    9.6794 S.O2    1  UNL1        0.0737
      4 C          14.8491   42.5091    6.8980 C.ar    1  UNL1        0.1469
      5 C          15.5774   41.9423    7.9572 C.ar    1  UNL1        0.0386
      6 C          14.9759   41.0105    8.8075 C.ar    1  UNL1        0.0233
      7 C          13.6437   40.6355    8.6060 C.ar    1  UNL1        0.1254
      8 C          12.9142   41.2003    7.5549 C.ar    1  UNL1        0.0233
      9 C          13.5160   42.1322    6.7044 C.ar    1  UNL1        0.0386
     10 O          15.4193   43.4454    6.0259 O.3     1  UNL1       -0.4045
     11 F          16.4458   44.4591    7.7999 F       1  UNL1       -0.1328
     12 F          15.9876   45.6757    5.9629 F       1  UNL1       -0.1328
     13 F          17.6205   44.1111    5.9122 F       1  UNL1       -0.1328
     14 C          16.3737   44.4286    6.4206 C.3     1  UNL1        0.5753
     15 N          11.1647   39.5962    9.5337 N.pl3   1  UNL1       -0.2119
     16 H          10.6743   38.8662    9.0910 H       1  UNL1        0.1738
     17 C          10.4293   40.7142   10.0306 C.ar    1  UNL1        0.1043
     18 C           9.9733   41.7653    9.2693 C.ar    1  UNL1        0.1125
     19 C          10.0542   40.9410   11.3414 C.ar    1  UNL1        0.1375
     20 N           9.3406   42.5849   10.1270 N.ar    1  UNL1       -0.2456
     21 N           9.3836   42.1095   11.3622 N.ar    1  UNL1       -0.1662
     22 C           8.7132   43.8466    9.7680 C.3     1  UNL1        0.1569
     23 C           7.4420   43.6017    8.9705 C.3     1  UNL1        0.1395
     24 C           6.6174   42.4683    9.6069 C.3     1  UNL1        0.0317
     25 C           5.1273   42.8149    9.6608 C.3     1  UNL1        0.0051
     26 C           4.6697   43.5364    8.3906 C.3     1  UNL1        0.0322
     27 C           5.7071   44.5675    7.9168 C.3     1  UNL1        0.1421
     28 O           6.6959   44.7915    8.8928 O.3     1  UNL1       -0.3542
@<TRIPOS>BOND
     1    14    11    1
     2    14    12    1
     3    14    13    1
     4    14    10    1
     5     4    10    1
     6     5     6   ar
     7     7     8   ar
     8     9     4   ar
     9    18    20   ar
    10    22    20    1
    11    23    22    1
    12    23    24    1
    13    23    28    1
    14    24    25    1
    15    25    26    1
    16    26    27    1
    17    27    28    1
    18    19    17   ar
    19     3     7    1
    20     3    15    1
    21    15    17    1
    22    20    21   ar
    23     4     5   ar
    24     6     7   ar
    25     8     9   ar
    26    17    18   ar
    27    19    21   ar
    28     3     1    2
    29     3     2    2
    30    15    16    1
@<TRIPOS>MOLECULE
MolPort-039-210-480 CSSS03437028746 MCULE-7076928754 PubChem-121017031
 28 30 0 0 0
SMALL
GASTEIGER

@<TRIPOS>ATOM
      1 O          13.7854   38.7631   10.4625 O.2     1  UNL1       -0.1499
      2 O          11.8110   38.7047    8.9927 O.2     1  UNL1       -0.1499
      3 S          12.7441   39.5934    9.7667 S.O2    1  UNL1        0.0737
      4 C          14.8035   42.4745    6.8930 C.ar    1  UNL1        0.1469
      5 C          13.4302   42.2067    6.7667 C.ar    1  UNL1        0.0386
      6 C          12.7994   41.3256    7.6493 C.ar    1  UNL1        0.0233
      7 C          13.5337   40.7068    8.6660 C.ar    1  UNL1        0.1254
      8 C          14.9018   40.9680    8.7928 C.ar    1  UNL1        0.0233
      9 C          15.5326   41.8493    7.9101 C.ar    1  UNL1        0.0386
     10 O          15.4687   43.3521    6.0271 O.3     1  UNL1       -0.4045
     11 F          16.3129   44.4644    7.8377 F       1  UNL1       -0.1328
     12 F          15.6119   45.6499    6.0580 F       1  UNL1       -0.1328
     13 F          17.5061   44.4201    5.9303 F       1  UNL1       -0.1328
     14 C          16.2290   44.4785    6.4589 C.3     1  UNL1        0.5753
     15 N          11.8341   40.4908   10.9357 N.pl3   1  UNL1       -0.2119
     16 H          12.2542   40.7041   11.8001 H       1  UNL1        0.1738
     17 C          10.4986   40.9331   10.6941 C.ar    1  UNL1        0.1043
     18 C           9.5175   41.0527   11.6509 C.ar    1  UNL1        0.1125
     19 C           9.9586   41.3088    9.4785 C.ar    1  UNL1        0.1375
     20 N           8.4283   41.4950   10.9983 N.ar    1  UNL1       -0.2456
     21 N           8.6749   41.6485    9.7064 N.ar    1  UNL1       -0.1662
     22 C           7.1332   41.7471   11.6095 C.3     1  UNL1        0.1569
     23 C           6.0114   41.3882   10.6481 C.3     1  UNL1        0.1395
     24 C           4.8566   40.7026   11.4004 C.3     1  UNL1        0.0317
     25 C           3.4939   41.2381   10.9535 C.3     1  UNL1        0.0051
     26 C           3.4493   41.4757    9.4419 C.3     1  UNL1        0.0322
     27 C           4.7554   42.1013    8.9255 C.3     1  UNL1        0.1421
     28 O           5.5689   42.5465    9.9841 O.3     1  UNL1       -0.3542
@<TRIPOS>BOND
     1    14    11    1
     2    14    12    1
     3    14    13    1
     4    14    10    1
     5     4    10    1
     6     5     6   ar
     7     7     8   ar
     8     9     4   ar
     9    18    20   ar
    10    22    20    1
    11    23    22    1
    12    23    24    1
    13    23    28    1
    14    24    25    1
    15    25    26    1
    16    26    27    1
    17    27    28    1
    18    19    17   ar
    19     3     7    1
    20     3    15    1
    21    15    17    1
    22    20    21   ar
    23     4     5   ar
    24     6     7   ar
    25     8     9   ar
    26    17    18   ar
    27    19    21   ar
    28     3     1    2
    29     3     2    2
    30    15    16    1
@<TRIPOS>MOLECULE
MolPort-039-210-480 CSSS03437028746 MCULE-7076928754 PubChem-121017031
 28 30 0 0 0
SMALL
GASTEIGER

@<TRIPOS>ATOM
      1 O          10.7490   39.6628    7.6490 O.2     1  UNL1       -0.1499
      2 O          10.6998   40.5092    5.3374 O.2     1  UNL1       -0.1499
      3 S          10.9261   40.8743    6.7779 S.O2    1  UNL1        0.0737
      4 C          15.1708   42.4676    7.2723 C.ar    1  UNL1        0.1469
      5 C          14.3236   42.9991    6.2857 C.ar    1  UNL1        0.0386
      6 C          13.0222   42.5120    6.1365 C.ar    1  UNL1        0.0233
      7 C          12.5555   41.4923    6.9722 C.ar    1  UNL1        0.1254
      8 C          13.3970   40.9581    7.9532 C.ar    1  UNL1        0.0233
      9 C          14.6987   41.4453    8.1023 C.ar    1  UNL1        0.0386
     10 O          16.4805   42.9314    7.4509 O.3     1  UNL1       -0.4045
     11 F          18.1838   44.4556    7.3887 F       1  UNL1       -0.1328
     12 F          16.1416   45.0710    6.6708 F       1  UNL1       -0.1328
     13 F          17.3879   43.6286    5.4530 F       1  UNL1       -0.1328
     14 C          17.0461   44.0261    6.7332 C.3     1  UNL1        0.5753
     15 N           9.7898   42.0975    7.2387 N.pl3   1  UNL1       -0.2119
     16 H           9.4712   42.7294    6.5543 H       1  UNL1        0.1738
     17 C           9.2974   42.2248    8.5725 C.ar    1  UNL1        0.1043
     18 C           8.1862   41.5860    9.0721 C.ar    1  UNL1        0.1125
     19 C           9.8342   43.0015    9.5819 C.ar    1  UNL1        0.1375
     20 N           8.0853   41.9845   10.3522 N.ar    1  UNL1       -0.2456
     21 N           9.0558   42.8283   10.6679 N.ar    1  UNL1       -0.1662
     22 C           7.0369   41.5771   11.2738 C.3     1  UNL1        0.1569
     23 C           5.7128   41.4266   10.5418 C.3     1  UNL1        0.1395
     24 C           4.6494   40.8166   11.4727 C.3     1  UNL1        0.0317
     25 C           3.3049   41.5370   11.3439 C.3     1  UNL1        0.0051
     26 C           2.9969   41.9007    9.8892 C.3     1  UNL1        0.0322
     27 C           4.2458   42.4151    9.1546 C.3     1  UNL1        0.1421
     28 O           5.2999   42.6778   10.0493 O.3     1  UNL1       -0.3542
@<TRIPOS>BOND
     1    14    11    1
     2    14    12    1
     3    14    13    1
     4    14    10    1
     5     4    10    1
     6     5     6   ar
     7     7     8   ar
     8     9     4   ar
     9    18    20   ar
    10    22    20    1
    11    23    22    1
    12    23    24    1
    13    23    28    1
    14    24    25    1
    15    25    26    1
    16    26    27    1
    17    27    28    1
    18    19    17   ar
    19     3     7    1
    20     3    15    1
    21    15    17    1
    22    20    21   ar
    23     4     5   ar
    24     6     7   ar
    25     8     9   ar
    26    17    18   ar
    27    19    21   ar
    28     3     1    2
    29     3     2    2
    30    15    16    1
@<TRIPOS>MOLECULE
MolPort-039-210-480 CSSS03437028746 MCULE-7076928754 PubChem-121017031
 28 30 0 0 0
SMALL
GASTEIGER

@<TRIPOS>ATOM
      1 O           9.3786   37.7549    7.9438 O.2     1  UNL1       -0.1499
      2 O          10.5695   39.0697    9.6512 O.2     1  UNL1       -0.1499
      3 S          10.1095   39.0382    8.2205 S.O2    1  UNL1        0.0737
      4 C           7.2970   42.5476    7.4630 C.ar    1  UNL1        0.1469
      5 C           8.1837   42.5711    8.5523 C.ar    1  UNL1        0.0386
      6 C           9.0470   41.4964    8.7823 C.ar    1  UNL1        0.0233
      7 C           9.0336   40.3910    7.9257 C.ar    1  UNL1        0.1254
      8 C           8.1497   40.3622    6.8422 C.ar    1  UNL1        0.0233
      9 C           7.2863   41.4372    6.6123 C.ar    1  UNL1        0.0386
     10 O           6.4182   43.6067    7.2016 O.3     1  UNL1       -0.4045
     11 F           4.8817   45.2452    7.6291 F       1  UNL1       -0.1328
     12 F           6.7967   45.2098    8.8104 F       1  UNL1       -0.1328
     13 F           5.2137   43.6331    9.1636 F       1  UNL1       -0.1328
     14 C           5.8288   44.4245    8.2102 C.3     1  UNL1        0.5753
     15 N          11.4873   39.1633    7.1784 N.pl3   1  UNL1       -0.2119
     16 H          11.6566   38.4427    6.5292 H       1  UNL1        0.1738
     17 C          12.3868   40.2708    7.2243 C.ar    1  UNL1        0.1043
     18 C          12.5074   41.2354    6.2511 C.ar    1  UNL1        0.1125
     19 C          13.2850   40.5657    8.2326 C.ar    1  UNL1        0.1375
     20 N          13.4582   42.0773    6.6926 N.ar    1  UNL1       -0.2456
     21 N          13.9315   41.6899    7.8671 N.ar    1  UNL1       -0.1662
     22 C          13.9380   43.2466    5.9737 C.3     1  UNL1        0.1569
     23 C          15.2237   43.7655    6.5980 C.3     1  UNL1        0.1395
     24 C          15.7927   42.7369    7.5919 C.3     1  UNL1        0.0317
     25 C          17.3071   42.5772    7.4352 C.3     1  UNL1        0.0051
     26 C          17.9924   43.9216    7.1778 C.3     1  UNL1        0.0322
     27 C          17.1826   44.7964    6.2068 C.3     1  UNL1        0.1421
     28 O          16.1541   44.0634    5.5861 O.3     1  UNL1       -0.3542
@<TRIPOS>BOND
     1    14    11    1
     2    14    12    1
     3    14    13    1
     4    14    10    1
     5     4    10    1
     6     5     6   ar
     7     7     8   ar
     8     9     4   ar
     9    18    20   ar
    10    22    20    1
    11    23    22    1
    12    23    24    1
    13    23    28    1
    14    24    25    1
    15    25    26    1
    16    26    27    1
    17    27    28    1
    18    19    17   ar
    19     3     7    1
    20     3    15    1
    21    15    17    1
    22    20    21   ar
    23     4     5   ar
    24     6     7   ar
    25     8     9   ar
    26    17    18   ar
    27    19    21   ar
    28     3     1    2
    29     3     2    2
    30    15    16    1
@<TRIPOS>MOLECULE
MolPort-039-210-480 CSSS03437028746 MCULE-7076928754 PubChem-121017031
 28 30 0 0 0
SMALL
GASTEIGER

@<TRIPOS>ATOM
      1 O          13.4260   39.1355   10.8634 O.2     1  UNL1       -0.1499
      2 O          11.5824   38.9260    9.2451 O.2     1  UNL1       -0.1499
      3 S          12.4555   39.8896    9.9991 S.O2    1  UNL1        0.0737
      4 C          14.7694   42.4841    7.0470 C.ar    1  UNL1        0.1469
      5 C          15.4519   41.7345    8.0196 C.ar    1  UNL1        0.0386
      6 C          14.7422   40.9377    8.9222 C.ar    1  UNL1        0.0233
      7 C          13.3462   40.8813    8.8598 C.ar    1  UNL1        0.1254
      8 C          12.6629   41.6289    7.8954 C.ar    1  UNL1        0.0233
      9 C          13.3728   42.4257    6.9926 C.ar    1  UNL1        0.0386
     10 O          15.4476   43.2929    6.1260 O.3     1  UNL1       -0.4045
     11 F          16.4327   44.4023    7.8659 F       1  UNL1       -0.1328
     12 F          15.8092   45.5652    6.0428 F       1  UNL1       -0.1328
     13 F          17.5748   44.1547    5.9427 F       1  UNL1       -0.1328
     14 C          16.3208   44.3600    6.4896 C.3     1  UNL1        0.5753
     15 N          11.4590   40.9051   10.9868 N.pl3   1  UNL1       -0.2119
     16 H          11.8487   41.3072   11.7966 H       1  UNL1        0.1738
     17 C          10.0943   41.1816   10.6722 C.ar    1  UNL1        0.1043
     18 C           9.5620   41.2057    9.4040 C.ar    1  UNL1        0.1125
     19 C           9.0820   41.4743   11.5666 C.ar    1  UNL1        0.1375
     20 N           8.2607   41.5038    9.5639 N.ar    1  UNL1       -0.2456
     21 N           7.9621   41.6694   10.8433 N.ar    1  UNL1       -0.1662
     22 C           7.3002   41.6586    8.4832 C.3     1  UNL1        0.1569
     23 C           6.1991   42.6276    8.8837 C.3     1  UNL1        0.1395
     24 C           6.3493   43.9573    8.1229 C.3     1  UNL1        0.0317
     25 C           5.0028   44.4655    7.6013 C.3     1  UNL1        0.0051
     26 C           3.8810   44.2342    8.6168 C.3     1  UNL1        0.0322
     27 C           4.0011   42.8593    9.2942 C.3     1  UNL1        0.1421
     28 O           4.9431   42.0424    8.6417 O.3     1  UNL1       -0.3542
@<TRIPOS>BOND
     1    14    11    1
     2    14    12    1
     3    14    13    1
     4    14    10    1
     5     4    10    1
     6     5     6   ar
     7     7     8   ar
     8     9     4   ar
     9    18    20   ar
    10    22    20    1
    11    23    22    1
    12    23    24    1
    13    23    28    1
    14    24    25    1
    15    25    26    1
    16    26    27    1
    17    27    28    1
    18    19    17   ar
    19     3     7    1
    20     3    15    1
    21    15    17    1
    22    20    21   ar
    23     4     5   ar
    24     6     7   ar
    25     8     9   ar
    26    17    18   ar
    27    19    21   ar
    28     3     1    2
    29     3     2    2
    30    15    16    1
@<TRIPOS>MOLECULE
MolPort-039-210-480 CSSS03437028746 MCULE-7076928754 PubChem-121017031
 28 30 0 0 0
SMALL
GASTEIGER

@<TRIPOS>ATOM
      1 O          11.0545   40.4001    8.6876 O.2     1  UNL1       -0.1499
      2 O          12.7773   38.6503    8.5094 O.2     1  UNL1       -0.1499
      3 S          12.1494   39.8340    7.8283 S.O2    1  UNL1        0.0737
      4 C          15.3308   43.0244    7.1210 C.ar    1  UNL1        0.1469
      5 C          14.1656   42.9979    6.3367 C.ar    1  UNL1        0.0386
      6 C          13.1901   42.0215    6.5558 C.ar    1  UNL1        0.0233
      7 C          13.3688   41.0653    7.5606 C.ar    1  UNL1        0.1254
      8 C          14.5291   41.0861    8.3411 C.ar    1  UNL1        0.0233
      9 C          15.5048   42.0628    8.1220 C.ar    1  UNL1        0.0386
     10 O          16.3292   43.9883    6.9301 O.3     1  UNL1       -0.4045
     11 F          18.5174   44.5083    7.3420 F       1  UNL1       -0.1328
     12 F          17.9144   43.8933    5.2629 F       1  UNL1       -0.1328
     13 F          17.9633   42.3663    6.9309 F       1  UNL1       -0.1328
     14 C          17.6851   43.6830    6.6109 C.3     1  UNL1        0.5753
     15 N          11.4969   39.3319    6.3045 N.pl3   1  UNL1       -0.2119
     16 H          12.1067   38.9553    5.6296 H       1  UNL1        0.1738
     17 C          10.1091   39.4430    5.9894 C.ar    1  UNL1        0.1043
     18 C           9.1474   39.9722    6.8186 C.ar    1  UNL1        0.1125
     19 C           9.4916   39.0424    4.8195 C.ar    1  UNL1        0.1375
     20 N           7.9925   39.8824    6.1361 N.ar    1  UNL1       -0.2456
     21 N           8.1814   39.3288    4.9480 N.ar    1  UNL1       -0.1662
     22 C           6.6930   40.3040    6.6339 C.3     1  UNL1        0.1569
     23 C           6.8210   41.5890    7.4364 C.3     1  UNL1        0.1395
     24 C           6.9604   42.7994    6.4957 C.3     1  UNL1        0.0317
     25 C           6.0925   43.9743    6.9537 C.3     1  UNL1        0.0051
     26 C           6.1057   44.1251    8.4770 C.3     1  UNL1        0.0322
     27 C           6.0325   42.7620    9.1844 C.3     1  UNL1        0.1421
     28 O           5.7079   41.7298    8.2847 O.3     1  UNL1       -0.3542
@<TRIPOS>BOND
     1    14    11    1
     2    14    12    1
     3    14    13    1
     4    14    10    1
     5     4    10    1
     6     5     6   ar
     7     7     8   ar
     8     9     4   ar
     9    18    20   ar
    10    22    20    1
    11    23    22    1
    12    23    24    1
    13    23    28    1
    14    24    25    1
    15    25    26    1
    16    26    27    1
    17    27    28    1
    18    19    17   ar
    19     3     7    1
    20     3    15    1
    21    15    17    1
    22    20    21   ar
    23     4     5   ar
    24     6     7   ar
    25     8     9   ar
    26    17    18   ar
    27    19    21   ar
    28     3     1    2
    29     3     2    2
    30    15    16    1
@<TRIPOS>MOLECULE
MolPort-039-210-480 CSSS03437028746 MCULE-7076928754 PubChem-121017031
 28 30 0 0 0
SMALL
GASTEIGER

@<TRIPOS>ATOM
      1 O          13.3910   39.5484   11.4860 O.2     1  UNL1       -0.1499
      2 O          14.7681   37.9117   10.2666 O.2     1  UNL1       -0.1499
      3 S          13.7209   38.9819   10.1339 S.O2    1  UNL1        0.0737
      4 C          15.3053   42.3034    7.4400 C.ar    1  UNL1        0.1469
      5 C          13.9962   41.8208    7.2765 C.ar    1  UNL1        0.0386
      6 C          13.5106   40.8048    8.1041 C.ar    1  UNL1        0.0233
      7 C          14.3269   40.2640    9.1026 C.ar    1  UNL1        0.1254
      8 C          15.6321   40.7392    9.2661 C.ar    1  UNL1        0.0233
      9 C          16.1177   41.7555    8.4383 C.ar    1  UNL1        0.0386
     10 O          15.8253   43.3208    6.6295 O.3     1  UNL1       -0.4045
     11 F          15.1085   43.8714    4.5292 F       1  UNL1       -0.1328
     12 F          15.4876   45.5150    6.0190 F       1  UNL1       -0.1328
     13 F          13.7057   44.1439    6.2676 F       1  UNL1       -0.1328
     14 C          15.0265   44.2200    5.8634 C.3     1  UNL1        0.5753
     15 N          12.2973   38.2981    9.4228 N.pl3   1  UNL1       -0.2119
     16 H          12.2866   37.3353    9.2176 H       1  UNL1        0.1738
     17 C          11.1390   39.0766    9.1229 C.ar    1  UNL1        0.1043
     18 C          10.2762   38.8443    8.0769 C.ar    1  UNL1        0.1125
     19 C          10.6864   40.1858    9.8123 C.ar    1  UNL1        0.1375
     20 N           9.3370   39.8024    8.1635 N.ar    1  UNL1       -0.2456
     21 N           9.5699   40.6087    9.1878 N.ar    1  UNL1       -0.1662
     22 C           8.2228   39.9656    7.2436 C.3     1  UNL1        0.1569
     23 C           8.7227   40.0446    5.8098 C.3     1  UNL1        0.1395
     24 C           9.9217   41.0049    5.7100 C.3     1  UNL1        0.0317
     25 C          11.0374   40.4273    4.8354 C.3     1  UNL1        0.0051
     26 C          10.4752   39.7016    3.6104 C.3     1  UNL1        0.0322
     27 C           9.2325   38.8680    3.9634 C.3     1  UNL1        0.1421
     28 O           9.0631   38.7574    5.3561 O.3     1  UNL1       -0.3542
@<TRIPOS>BOND
     1    14    11    1
     2    14    12    1
     3    14    13    1
     4    14    10    1
     5     4    10    1
     6     5     6   ar
     7     7     8   ar
     8     9     4   ar
     9    18    20   ar
    10    22    20    1
    11    23    22    1
    12    23    24    1
    13    23    28    1
    14    24    25    1
    15    25    26    1
    16    26    27    1
    17    27    28    1
    18    19    17   ar
    19     3     7    1
    20     3    15    1
    21    15    17    1
    22    20    21   ar
    23     4     5   ar
    24     6     7   ar
    25     8     9   ar
    26    17    18   ar
    27    19    21   ar
    28     3     1    2
    29     3     2    2
    30    15    16    1
@<TRIPOS>MOLECULE
MolPort-039-210-480 CSSS03437028746 MCULE-7076928754 PubChem-121017031
 28 30 0 0 0
SMALL
GASTEIGER

@<TRIPOS>ATOM
      1 O          10.6776   40.6980    9.1511 O.2     1  UNL1       -0.1499
      2 O          10.9028   39.5505    6.9844 O.2     1  UNL1       -0.1499
      3 S          11.0448   40.8629    7.7035 S.O2    1  UNL1        0.0737
      4 C          15.3697   42.2768    7.3933 C.ar    1  UNL1        0.1469
      5 C          14.4137   42.7069    6.4581 C.ar    1  UNL1        0.0386
      6 C          13.0881   42.2752    6.5554 C.ar    1  UNL1        0.0233
      7 C          12.7059   41.4127    7.5878 C.ar    1  UNL1        0.1254
      8 C          13.6555   40.9793    8.5186 C.ar    1  UNL1        0.0233
      9 C          14.9814   41.4113    8.4213 C.ar    1  UNL1        0.0386
     10 O          16.7068   42.6893    7.3272 O.3     1  UNL1       -0.4045
     11 F          16.1181   44.8864    7.0944 F       1  UNL1       -0.1328
     12 F          17.3879   43.9224    5.5061 F       1  UNL1       -0.1328
     13 F          18.2627   44.3727    7.5429 F       1  UNL1       -0.1328
     14 C          17.1265   43.9708    6.8637 C.3     1  UNL1        0.5753
     15 N          10.0011   42.0309    6.9644 N.pl3   1  UNL1       -0.2119
     16 H          10.3982   42.7207    6.3849 H       1  UNL1        0.1738
     17 C           8.5876   42.0321    7.1630 C.ar    1  UNL1        0.1043
     18 C           7.8770   43.0224    7.8007 C.ar    1  UNL1        0.1125
     19 C           7.6951   41.0553    6.7629 C.ar    1  UNL1        0.1375
     20 N           6.5929   42.6256    7.7658 N.ar    1  UNL1       -0.2456
     21 N           6.4703   41.4570    7.1552 N.ar    1  UNL1       -0.1662
     22 C           5.4768   43.3560    8.3448 C.3     1  UNL1        0.1569
     23 C           4.9979   42.6759    9.6175 C.3     1  UNL1        0.1395
     24 C           3.5786   42.1118    9.4250 C.3     1  UNL1        0.0317
     25 C           3.4458   40.7035   10.0103 C.3     1  UNL1        0.0051
     26 C           4.1985   40.5706   11.3366 C.3     1  UNL1        0.0322
     27 C           5.5586   41.2863   11.2932 C.3     1  UNL1        0.1421
     28 O           5.9028   41.6625    9.9815 O.3     1  UNL1       -0.3542
@<TRIPOS>BOND
     1    14    11    1
     2    14    12    1
     3    14    13    1
     4    14    10    1
     5     4    10    1
     6     5     6   ar
     7     7     8   ar
     8     9     4   ar
     9    18    20   ar
    10    22    20    1
    11    23    22    1
    12    23    24    1
    13    23    28    1
    14    24    25    1
    15    25    26    1
    16    26    27    1
    17    27    28    1
    18    19    17   ar
    19     3     7    1
    20     3    15    1
    21    15    17    1
    22    20    21   ar
    23     4     5   ar
    24     6     7   ar
    25     8     9   ar
    26    17    18   ar
    27    19    21   ar
    28     3     1    2
    29     3     2    2
    30    15    16    1
@<TRIPOS>MOLECULE
MolPort-039-210-480 CSSS03437028746 MCULE-7076928754 PubChem-121017031
 28 30 0 0 0
SMALL
GASTEIGER

@<TRIPOS>ATOM
      1 O          14.8220   38.1983   10.4681 O.2     1  UNL1       -0.1499
      2 O          13.0956   38.4223    8.7270 O.2     1  UNL1       -0.1499
      3 S          13.8826   39.1490    9.7816 S.O2    1  UNL1        0.0737
      4 C          16.2838   42.5093    7.8470 C.ar    1  UNL1        0.1469
      5 C          16.8884   41.6520    8.7814 C.ar    1  UNL1        0.0386
      6 C          16.1525   40.6210    9.3719 C.ar    1  UNL1        0.0233
      7 C          14.8084   40.4362    9.0328 C.ar    1  UNL1        0.1254
      8 C          14.2019   41.2898    8.1057 C.ar    1  UNL1        0.0233
      9 C          14.9380   42.3209    7.5151 C.ar    1  UNL1        0.0386
     10 O          16.9904   43.5525    7.2349 O.3     1  UNL1       -0.4045
     11 F          15.6347   43.3588    5.4038 F       1  UNL1       -0.1328
     12 F          17.7935   43.9219    5.1088 F       1  UNL1       -0.1328
     13 F          16.3473   45.4016    6.0231 F       1  UNL1       -0.1328
     14 C          16.6951   44.0653    5.9375 C.3     1  UNL1        0.5753
     15 N          12.7880   39.8283   10.9393 N.pl3   1  UNL1       -0.2119
     16 H          13.0926   39.9419   11.8686 H       1  UNL1        0.1738
     17 C          11.4613   40.2297   10.5982 C.ar    1  UNL1        0.1043
     18 C          10.6055   40.9226   11.4228 C.ar    1  UNL1        0.1125
     19 C          10.8074   39.9951    9.4032 C.ar    1  UNL1        0.1375
     20 N           9.4758   41.0894   10.7131 N.ar    1  UNL1       -0.2456
     21 N           9.5802   40.5405    9.5125 N.ar    1  UNL1       -0.1662
     22 C           8.2765   41.7549   11.1959 C.3     1  UNL1        0.1569
     23 C           7.5114   42.3791   10.0397 C.3     1  UNL1        0.1395
     24 C           8.4627   43.1866    9.1383 C.3     1  UNL1        0.0317
     25 C           8.1884   42.9308    7.6541 C.3     1  UNL1        0.0051
     26 C           6.6881   42.8313    7.3668 C.3     1  UNL1        0.0322
     27 C           5.9512   42.0371    8.4578 C.3     1  UNL1        0.1421
     28 O           6.8521   41.3728    9.3108 O.3     1  UNL1       -0.3542
@<TRIPOS>BOND
     1    14    11    1
     2    14    12    1
     3    14    13    1
     4    14    10    1
     5     4    10    1
     6     5     6   ar
     7     7     8   ar
     8     9     4   ar
     9    18    20   ar
    10    22    20    1
    11    23    22    1
    12    23    24    1
    13    23    28    1
    14    24    25    1
    15    25    26    1
    16    26    27    1
    17    27    28    1
    18    19    17   ar
    19     3     7    1
    20     3    15    1
    21    15    17    1
    22    20    21   ar
    23     4     5   ar
    24     6     7   ar
    25     8     9   ar
    26    17    18   ar
    27    19    21   ar
    28     3     1    2
    29     3     2    2
    30    15    16    1
@<TRIPOS>MOLECULE
MolPort-039-210-480 CSSS03437028746 MCULE-7076928754 PubChem-121017031
 28 30 0 0 0
SMALL
GASTEIGER

@<TRIPOS>ATOM
      1 O           9.0452   39.8263    3.4208 O.2     1  UNL1       -0.1499
      2 O           9.2203   38.0483    5.1149 O.2     1  UNL1       -0.1499
      3 S           9.4143   39.5140    4.8434 S.O2    1  UNL1        0.0737
      4 C           6.7506   41.9441    7.6361 C.ar    1  UNL1        0.1469
      5 C           6.4431   40.6035    7.3504 C.ar    1  UNL1        0.0386
      6 C           7.2612   39.8588    6.4965 C.ar    1  UNL1        0.0233
      7 C           8.3938   40.4455    5.9230 C.ar    1  UNL1        0.1254
      8 C           8.7013   41.7810    6.2021 C.ar    1  UNL1        0.0233
      9 C           7.8829   42.5258    7.0562 C.ar    1  UNL1        0.0386
     10 O           5.9539   42.7205    8.4875 O.3     1  UNL1       -0.4045
     11 F           6.2946   44.9799    8.5717 F       1  UNL1       -0.1328
     12 F           4.1973   44.1848    8.7552 F       1  UNL1       -0.1328
     13 F           5.2772   44.0960    6.7695 F       1  UNL1       -0.1328
     14 C           5.4232   43.9981    8.1417 C.3     1  UNL1        0.5753
     15 N          11.0728   39.9282    5.1220 N.pl3   1  UNL1       -0.2119
     16 H          11.6987   39.9120    4.3623 H       1  UNL1        0.1738
     17 C          11.5673   40.2922    6.4107 C.ar    1  UNL1        0.1043
     18 C          11.4759   39.5168    7.5433 C.ar    1  UNL1        0.1125
     19 C          12.2101   41.4684    6.7483 C.ar    1  UNL1        0.1375
     20 N          12.0610   40.2327    8.5195 N.ar    1  UNL1       -0.2456
     21 N          12.4988   41.3958    8.0623 N.ar    1  UNL1       -0.1662
     22 C          12.1785   39.8137    9.9070 C.3     1  UNL1        0.1569
     23 C          13.6221   39.9140   10.3734 C.3     1  UNL1        0.1395
     24 C          13.7951   39.2269   11.7400 C.3     1  UNL1        0.0317
     25 C          15.0632   38.3706   11.7859 C.3     1  UNL1        0.0051
     26 C          16.2303   39.0521   11.0671 C.3     1  UNL1        0.0322
     27 C          15.7779   39.7300    9.7634 C.3     1  UNL1        0.1421
     28 O          14.4718   39.3455    9.4073 O.3     1  UNL1       -0.3542
@<TRIPOS>BOND
     1    14    11    1
     2    14    12    1
     3    14    13    1
     4    14    10    1
     5     4    10    1
     6     5     6   ar
     7     7     8   ar
     8     9     4   ar
     9    18    20   ar
    10    22    20    1
    11    23    22    1
    12    23    24    1
    13    23    28    1
    14    24    25    1
    15    25    26    1
    16    26    27    1
    17    27    28    1
    18    19    17   ar
    19     3     7    1
    20     3    15    1
    21    15    17    1
    22    20    21   ar
    23     4     5   ar
    24     6     7   ar
    25     8     9   ar
    26    17    18   ar
    27    19    21   ar
    28     3     1    2
    29     3     2    2
    30    15    16    1
