@<TRIPOS>MOLECULE
MolPort-027-837-239 91301373 LN01360265 MCULE-5625054034 PubChem-66832013 ZINC000091301373 ZINC91301373
 19 19 0 0 0
SMALL
GASTEIGER

@<TRIPOS>ATOM
      1 C          15.6576   43.9990    5.9661 C.ar    1  UNL1        0.1996
      2 C          13.6149   43.3658    6.0152 C.ar    1  UNL1        0.2353
      3 C          14.8629   42.9743    6.4545 C.ar    1  UNL1        0.0853
      4 O          13.6912   44.4917    5.3488 O.2     1  UNL1       -0.3378
      5 N          14.9196   44.9077    5.2981 N.ar    1  UNL1       -0.0687
      6 C          12.3286   41.4295    7.0112 C.2     1  UNL1        0.4074
      7 O          13.3672   40.9256    7.5207 O.2     1  UNL1       -0.2260
      8 N          12.4060   42.6411    6.2553 N.am    1  UNL1       -0.2189
      9 H          11.5718   42.9999    5.8751 H       1  UNL1        0.1611
     10 O          11.0807   40.8130    7.1755 O.3     1  UNL1       -0.4417
     11 C          10.3285   40.8129    8.3913 C.3     1  UNL1        0.1378
     12 C          10.5911   42.0803    9.1862 C.3     1  UNL1        0.0437
     13 C           8.8424   40.6842    8.1041 C.3     1  UNL1        0.0437
     14 C          10.7588   39.6261    9.2271 C.3     1  UNL1        0.0437
     15 C          17.1094   44.0995    6.1426 C.2     1  UNL1        0.3625
     16 O          17.8749   43.8904    5.1621 O.2     1  UNL1       -0.2431
     17 O          17.6337   44.4201    7.3989 O.3     1  UNL1       -0.4443
     18 C          17.9002   42.1634    8.2172 C.3     1  UNL1        0.0513
     19 C          17.4670   43.5825    8.5368 C.3     1  UNL1        0.2089
@<TRIPOS>BOND
     1    18    19    1
     2    19    17    1
     3    15    17    1
     4    15     1    1
     5     2     4   ar
     6     2     8    1
     7     6    10    1
     8    11    10    1
     9    11    12    1
    10    11    13    1
    11    11    14    1
    12     3     1   ar
    13     5     4   ar
    14     8     6   am
    15    15    16    2
    16     1     5   ar
    17     2     3   ar
    18     6     7    2
    19     8     9    1
@<TRIPOS>MOLECULE
MolPort-027-837-239 91301373 LN01360265 MCULE-5625054034 PubChem-66832013 ZINC000091301373 ZINC91301373
 19 19 0 0 0
SMALL
GASTEIGER

@<TRIPOS>ATOM
      1 C          15.6185   43.9795    5.9852 C.ar    1  UNL1        0.1996
      2 C          13.5747   43.3568    6.0895 C.ar    1  UNL1        0.2353
      3 C          14.8321   42.9585    6.4943 C.ar    1  UNL1        0.0853
      4 O          13.6385   44.4830    5.4223 O.2     1  UNL1       -0.3378
      5 N          14.8672   44.8927    5.3383 N.ar    1  UNL1       -0.0687
      6 C          12.3100   41.4091    7.0909 C.2     1  UNL1        0.4074
      7 O          13.3632   40.8829    7.5446 O.2     1  UNL1       -0.2260
      8 N          12.3690   42.6381    6.3620 N.am    1  UNL1       -0.2189
      9 H          11.5237   43.0142    6.0255 H       1  UNL1        0.1611
     10 O          11.0634   40.8008    7.2918 O.3     1  UNL1       -0.4417
     11 C          10.2238   40.3043    6.2465 C.3     1  UNL1        0.1378
     12 C           9.1155   41.2938    5.9311 C.3     1  UNL1        0.0437
     13 C          11.0348   40.0232    4.9932 C.3     1  UNL1        0.0437
     14 C           9.5912   39.0083    6.7077 C.3     1  UNL1        0.0437
     15 C          17.0751   44.0724    6.1221 C.2     1  UNL1        0.3625
     16 O          17.8128   43.8514    5.1231 O.2     1  UNL1       -0.2431
     17 O          17.6346   44.3990    7.3615 O.3     1  UNL1       -0.4443
     18 C          17.8722   42.1605    8.2371 C.3     1  UNL1        0.0513
     19 C          17.4572   43.5928    8.5203 C.3     1  UNL1        0.2089
@<TRIPOS>BOND
     1    18    19    1
     2    19    17    1
     3    15    17    1
     4    15     1    1
     5     2     4   ar
     6     2     8    1
     7     6    10    1
     8    11    10    1
     9    11    12    1
    10    11    13    1
    11    11    14    1
    12     3     1   ar
    13     5     4   ar
    14     8     6   am
    15    15    16    2
    16     1     5   ar
    17     2     3   ar
    18     6     7    2
    19     8     9    1
@<TRIPOS>MOLECULE
MolPort-027-837-239 91301373 LN01360265 MCULE-5625054034 PubChem-66832013 ZINC000091301373 ZINC91301373
 19 19 0 0 0
SMALL
GASTEIGER

@<TRIPOS>ATOM
      1 C          14.2178   43.2531    6.5493 C.ar    1  UNL1        0.1996
      2 C          13.3741   41.4709    7.3787 C.ar    1  UNL1        0.2353
      3 C          14.5906   42.1045    7.2288 C.ar    1  UNL1        0.0853
      4 O          12.4128   42.1824    6.8426 O.2     1  UNL1       -0.3378
      5 N          12.8885   43.2747    6.3277 N.ar    1  UNL1       -0.0687
      6 C          12.6791   40.0568    9.3568 C.2     1  UNL1        0.4074
      7 O          12.3550   41.0670   10.0396 O.2     1  UNL1       -0.2260
      8 N          13.1900   40.2115    8.0300 N.am    1  UNL1       -0.2189
      9 H          13.4308   39.3970    7.5321 H       1  UNL1        0.1611
     10 O          12.5454   38.7650    9.8840 O.3     1  UNL1       -0.4417
     11 C          13.5861   38.0491   10.5535 C.3     1  UNL1        0.1378
     12 C          14.0705   38.8177   11.7708 C.3     1  UNL1        0.0437
     13 C          13.1063   36.6702   10.9729 C.3     1  UNL1        0.0437
     14 C          14.7497   37.8811    9.5995 C.3     1  UNL1        0.0437
     15 C          15.1326   44.3155    6.1207 C.2     1  UNL1        0.3625
     16 O          14.9950   44.8373    4.9806 O.2     1  UNL1       -0.2431
     17 O          16.1544   44.7369    6.9776 O.3     1  UNL1       -0.4443
     18 C          17.8266   43.5977    8.2965 C.3     1  UNL1        0.0513
     19 C          17.4635   44.1806    6.9430 C.3     1  UNL1        0.2089
@<TRIPOS>BOND
     1    18    19    1
     2    19    17    1
     3    15    17    1
     4    15     1    1
     5     2     4   ar
     6     2     8    1
     7     6    10    1
     8    11    10    1
     9    11    12    1
    10    11    13    1
    11    11    14    1
    12     3     1   ar
    13     5     4   ar
    14     8     6   am
    15    15    16    2
    16     1     5   ar
    17     2     3   ar
    18     6     7    2
    19     8     9    1
@<TRIPOS>MOLECULE
MolPort-027-837-239 91301373 LN01360265 MCULE-5625054034 PubChem-66832013 ZINC000091301373 ZINC91301373
 19 19 0 0 0
SMALL
GASTEIGER

@<TRIPOS>ATOM
      1 C          14.6269   42.4405    7.2434 C.ar    1  UNL1        0.1996
      2 C          12.7260   42.1796    6.2979 C.ar    1  UNL1        0.2353
      3 C          13.5852   41.5306    7.1606 C.ar    1  UNL1        0.0853
      4 O          13.2248   43.3343    5.9298 O.2     1  UNL1       -0.3378
      5 N          14.3816   43.5277    6.4855 N.ar    1  UNL1       -0.0687
      6 C          10.2872   41.6278    6.6768 C.2     1  UNL1        0.4074
      7 O          10.3098   42.0719    7.8576 O.2     1  UNL1       -0.2260
      8 N          11.4651   41.6617    5.8664 N.am    1  UNL1       -0.2189
      9 H          11.4036   41.3049    4.9509 H       1  UNL1        0.1611
     10 O           9.1095   41.0933    6.1368 O.3     1  UNL1       -0.4417
     11 C           8.8224   39.6963    6.0370 C.3     1  UNL1        0.1378
     12 C           9.1869   39.1694    4.6598 C.3     1  UNL1        0.0437
     13 C           9.5735   38.9156    7.1020 C.3     1  UNL1        0.0437
     14 C           7.3378   39.4903    6.2506 C.3     1  UNL1        0.0437
     15 C          15.8421   42.2628    8.0441 C.2     1  UNL1        0.3625
     16 O          16.1200   41.1265    8.5157 O.2     1  UNL1       -0.2431
     17 O          16.6796   43.3569    8.2836 O.3     1  UNL1       -0.4443
     18 C          17.8374   43.7373    6.1982 C.3     1  UNL1        0.0513
     19 C          17.9661   43.4835    7.6891 C.3     1  UNL1        0.2089
@<TRIPOS>BOND
     1    18    19    1
     2    19    17    1
     3    15    17    1
     4    15     1    1
     5     2     4   ar
     6     2     8    1
     7     6    10    1
     8    11    10    1
     9    11    12    1
    10    11    13    1
    11    11    14    1
    12     3     1   ar
    13     5     4   ar
    14     8     6   am
    15    15    16    2
    16     1     5   ar
    17     2     3   ar
    18     6     7    2
    19     8     9    1
@<TRIPOS>MOLECULE
MolPort-027-837-239 91301373 LN01360265 MCULE-5625054034 PubChem-66832013 ZINC000091301373 ZINC91301373
 19 19 0 0 0
SMALL
GASTEIGER

@<TRIPOS>ATOM
      1 C          14.6928   43.0827    6.5766 C.ar    1  UNL1        0.1996
      2 C          12.6777   42.3877    6.3977 C.ar    1  UNL1        0.2353
      3 C          13.4891   43.4228    5.9805 C.ar    1  UNL1        0.0853
      4 O          13.3476   41.5491    7.1499 O.2     1  UNL1       -0.3378
      5 N          14.5784   41.9395    7.2812 N.ar    1  UNL1       -0.0687
      6 C          10.6628   41.0078    5.7406 C.2     1  UNL1        0.4074
      7 O          11.3226   39.9324    5.7520 O.2     1  UNL1       -0.2260
      8 N          11.2964   42.2508    6.0552 N.am    1  UNL1       -0.2189
      9 H          10.7449   43.0661    6.0345 H       1  UNL1        0.1611
     10 O           9.2984   41.0058    5.4201 O.3     1  UNL1       -0.4417
     11 C           8.2387   41.0511    6.3787 C.3     1  UNL1        0.1378
     12 C           7.5859   42.4225    6.3942 C.3     1  UNL1        0.0437
     13 C           7.1960   39.9882    6.0781 C.3     1  UNL1        0.0437
     14 C           8.8158   40.7804    7.7520 C.3     1  UNL1        0.0437
     15 C          15.9367   43.8508    6.4666 C.2     1  UNL1        0.3625
     16 O          16.4595   44.0362    5.3337 O.2     1  UNL1       -0.2431
     17 O          16.5366   44.3660    7.6201 O.3     1  UNL1       -0.4443
     18 C          17.8417   42.4060    8.1575 C.3     1  UNL1        0.0513
     19 C          17.8040   43.9219    8.0901 C.3     1  UNL1        0.2089
@<TRIPOS>BOND
     1    18    19    1
     2    19    17    1
     3    15    17    1
     4    15     1    1
     5     2     4   ar
     6     2     8    1
     7     6    10    1
     8    11    10    1
     9    11    12    1
    10    11    13    1
    11    11    14    1
    12     3     1   ar
    13     5     4   ar
    14     8     6   am
    15    15    16    2
    16     1     5   ar
    17     2     3   ar
    18     6     7    2
    19     8     9    1
@<TRIPOS>MOLECULE
MolPort-027-837-239 91301373 LN01360265 MCULE-5625054034 PubChem-66832013 ZINC000091301373 ZINC91301373
 19 19 0 0 0
SMALL
GASTEIGER

@<TRIPOS>ATOM
      1 C          13.9009   43.2937    6.4600 C.ar    1  UNL1        0.1996
      2 C          12.4631   42.1620    7.5680 C.ar    1  UNL1        0.2353
      3 C          13.4228   43.1363    7.7509 C.ar    1  UNL1        0.0853
      4 O          12.4016   41.8038    6.3088 O.2     1  UNL1       -0.3378
      5 N          13.2626   42.4716    5.6036 N.ar    1  UNL1       -0.0687
      6 C          10.2214   41.7031    8.6450 C.2     1  UNL1        0.4074
      7 O           9.5917   42.2839    7.7186 O.2     1  UNL1       -0.2260
      8 N          11.6487   41.6194    8.6104 N.am    1  UNL1       -0.2189
      9 H          12.1003   41.1575    9.3534 H       1  UNL1        0.1611
     10 O           9.5359   41.1296    9.7246 O.3     1  UNL1       -0.4417
     11 C           9.1230   41.8401   10.8946 C.3     1  UNL1        0.1378
     12 C           9.4921   43.3098   10.7894 C.3     1  UNL1        0.0437
     13 C           7.6258   41.6996   11.1087 C.3     1  UNL1        0.0437
     14 C           9.8352   41.2527   12.0946 C.3     1  UNL1        0.0437
     15 C          14.9590   44.2256    6.0588 C.2     1  UNL1        0.3625
     16 O          14.9632   44.7024    4.8910 O.2     1  UNL1       -0.2431
     17 O          15.9589   44.5731    6.9729 O.3     1  UNL1       -0.4443
     18 C          17.6850   43.5295    8.3014 C.3     1  UNL1        0.0513
     19 C          17.2681   44.0181    6.9262 C.3     1  UNL1        0.2089
@<TRIPOS>BOND
     1    18    19    1
     2    19    17    1
     3    15    17    1
     4    15     1    1
     5     2     4   ar
     6     2     8    1
     7     6    10    1
     8    11    10    1
     9    11    12    1
    10    11    13    1
    11    11    14    1
    12     3     1   ar
    13     5     4   ar
    14     8     6   am
    15    15    16    2
    16     1     5   ar
    17     2     3   ar
    18     6     7    2
    19     8     9    1
@<TRIPOS>MOLECULE
MolPort-027-837-239 91301373 LN01360265 MCULE-5625054034 PubChem-66832013 ZINC000091301373 ZINC91301373
 19 19 0 0 0
SMALL
GASTEIGER

@<TRIPOS>ATOM
      1 C          10.8181   42.4106    9.6138 C.ar    1  UNL1        0.1996
      2 C           8.9103   42.5974   10.5631 C.ar    1  UNL1        0.2353
      3 C           9.6970   41.6591    9.9272 C.ar    1  UNL1        0.0853
      4 O           9.5182   43.7576   10.6069 O.2     1  UNL1       -0.3378
      5 N          10.6827   43.6825   10.0386 N.ar    1  UNL1       -0.0687
      6 C           6.5776   41.6333   10.4053 C.2     1  UNL1        0.4074
      7 O           6.7756   41.1923    9.2399 O.2     1  UNL1       -0.2260
      8 N           7.6108   42.3374   11.0997 N.am    1  UNL1       -0.2189
      9 H           7.4143   42.6647   12.0072 H       1  UNL1        0.1611
     10 O           5.3435   41.4425   11.0416 O.3     1  UNL1       -0.4417
     11 C           4.0825   41.8548   10.5088 C.3     1  UNL1        0.1378
     12 C           4.2472   43.0764    9.6212 C.3     1  UNL1        0.0437
     13 C           3.4381   40.7283    9.7193 C.3     1  UNL1        0.0437
     14 C           3.1665   42.2185   11.6581 C.3     1  UNL1        0.0437
     15 C          12.0041   41.9072    8.9145 C.2     1  UNL1        0.3625
     16 O          12.6201   42.6565    8.1081 O.2     1  UNL1       -0.2431
     17 O          12.4387   40.5976    9.1427 O.3     1  UNL1       -0.4443
     18 C          13.2467   39.6302   11.2030 C.3     1  UNL1        0.0513
     19 C          13.6119   40.2973    9.8895 C.3     1  UNL1        0.2089
@<TRIPOS>BOND
     1    18    19    1
     2    19    17    1
     3    15    17    1
     4    15     1    1
     5     2     4   ar
     6     2     8    1
     7     6    10    1
     8    11    10    1
     9    11    12    1
    10    11    13    1
    11    11    14    1
    12     3     1   ar
    13     5     4   ar
    14     8     6   am
    15    15    16    2
    16     1     5   ar
    17     2     3   ar
    18     6     7    2
    19     8     9    1
@<TRIPOS>MOLECULE
MolPort-027-837-239 91301373 LN01360265 MCULE-5625054034 PubChem-66832013 ZINC000091301373 ZINC91301373
 19 19 0 0 0
SMALL
GASTEIGER

@<TRIPOS>ATOM
      1 C          14.7760   41.3923    8.2511 C.ar    1  UNL1        0.1996
      2 C          12.6851   41.1381    7.8782 C.ar    1  UNL1        0.2353
      3 C          13.6581   40.7720    8.7853 C.ar    1  UNL1        0.0853
      4 O          13.1943   41.8863    6.9303 O.2     1  UNL1       -0.3378
      5 N          14.4655   42.0628    7.1239 N.ar    1  UNL1       -0.0687
      6 C          10.3516   41.3716    8.8250 C.2     1  UNL1        0.4074
      7 O          10.6903   42.3238    9.5804 O.2     1  UNL1       -0.2260
      8 N          11.3107   40.7532    7.9628 N.am    1  UNL1       -0.2189
      9 H          11.0043   40.0136    7.3898 H       1  UNL1        0.1611
     10 O           9.0312   40.9017    8.8156 O.3     1  UNL1       -0.4417
     11 C           7.8718   41.7353    8.8859 C.3     1  UNL1        0.1378
     12 C           8.1279   43.0708    8.2092 C.3     1  UNL1        0.0437
     13 C           6.6783   41.0519    8.2408 C.3     1  UNL1        0.0437
     14 C           7.5469   41.9914   10.3423 C.3     1  UNL1        0.0437
     15 C          16.1253   41.3391    8.8219 C.2     1  UNL1        0.3625
     16 O          16.5437   40.2678    9.3399 O.2     1  UNL1       -0.2431
     17 O          16.9349   42.4791    8.7928 O.3     1  UNL1       -0.4443
     18 C          17.7675   43.9932    7.1052 C.3     1  UNL1        0.0513
     19 C          17.9582   42.6694    7.8228 C.3     1  UNL1        0.2089
@<TRIPOS>BOND
     1    18    19    1
     2    19    17    1
     3    15    17    1
     4    15     1    1
     5     2     4   ar
     6     2     8    1
     7     6    10    1
     8    11    10    1
     9    11    12    1
    10    11    13    1
    11    11    14    1
    12     3     1   ar
    13     5     4   ar
    14     8     6   am
    15    15    16    2
    16     1     5   ar
    17     2     3   ar
    18     6     7    2
    19     8     9    1
@<TRIPOS>MOLECULE
MolPort-027-837-239 91301373 LN01360265 MCULE-5625054034 PubChem-66832013 ZINC000091301373 ZINC91301373
 19 19 0 0 0
SMALL
GASTEIGER

@<TRIPOS>ATOM
      1 C          14.4214   42.2530    7.2188 C.ar    1  UNL1        0.1996
      2 C          12.4182   41.5366    6.9954 C.ar    1  UNL1        0.2353
      3 C          13.4832   41.4683    7.8699 C.ar    1  UNL1        0.0853
      4 O          12.7179   42.2802    5.9586 O.2     1  UNL1       -0.3378
      5 N          13.9297   42.7339    6.0596 N.ar    1  UNL1       -0.0687
      6 C          10.1232   41.3787    8.0460 C.2     1  UNL1        0.4074
      7 O          10.2773   42.4558    8.6848 O.2     1  UNL1       -0.2260
      8 N          11.1613   40.8851    7.1950 N.am    1  UNL1       -0.2189
      9 H          10.9997   40.0409    6.7150 H       1  UNL1        0.1611
     10 O           8.9338   40.6457    8.1574 O.3     1  UNL1       -0.4417
     11 C           7.7586   40.8808    7.3779 C.3     1  UNL1        0.1378
     12 C           6.5499   41.0838    8.2751 C.3     1  UNL1        0.0437
     13 C           7.9424   42.0923    6.4801 C.3     1  UNL1        0.0437
     14 C           7.5074   39.6709    6.5032 C.3     1  UNL1        0.0437
     15 C          15.7736   42.5353    7.7096 C.2     1  UNL1        0.3625
     16 O          16.4776   41.5990    8.1772 O.2     1  UNL1       -0.2431
     17 O          16.2691   43.8422    7.6610 O.3     1  UNL1       -0.4443
     18 C          17.6579   43.8223    5.6850 C.3     1  UNL1        0.0513
     19 C          16.5373   44.5166    6.4373 C.3     1  UNL1        0.2089
@<TRIPOS>BOND
     1    18    19    1
     2    19    17    1
     3    15    17    1
     4    15     1    1
     5     2     4   ar
     6     2     8    1
     7     6    10    1
     8    11    10    1
     9    11    12    1
    10    11    13    1
    11    11    14    1
    12     3     1   ar
    13     5     4   ar
    14     8     6   am
    15    15    16    2
    16     1     5   ar
    17     2     3   ar
    18     6     7    2
    19     8     9    1
@<TRIPOS>MOLECULE
MolPort-027-837-239 91301373 LN01360265 MCULE-5625054034 PubChem-66832013 ZINC000091301373 ZINC91301373
 19 19 0 0 0
SMALL
GASTEIGER

@<TRIPOS>ATOM
      1 C          16.4617   42.2719    8.2574 C.ar    1  UNL1        0.1996
      2 C          15.2411   40.6133    8.8363 C.ar    1  UNL1        0.2353
      3 C          15.1552   41.8186    8.1701 C.ar    1  UNL1        0.0853
      4 O          16.4644   40.4034    9.2570 O.2     1  UNL1       -0.3378
      5 N          17.2360   41.3921    8.9230 N.ar    1  UNL1       -0.0687
      6 C          14.2484   38.2924    8.9902 C.2     1  UNL1        0.4074
      7 O          15.3581   37.7389    8.7575 O.2     1  UNL1       -0.2260
      8 N          14.1448   39.7181    9.0384 N.am    1  UNL1       -0.2189
      9 H          13.2602   40.1088    9.2229 H       1  UNL1        0.1611
     10 O          13.0971   37.5227    9.2058 O.3     1  UNL1       -0.4417
     11 C          12.9798   36.4955   10.1933 C.3     1  UNL1        0.1378
     12 C          13.7479   36.8673   11.4499 C.3     1  UNL1        0.0437
     13 C          11.5217   36.2439   10.5370 C.3     1  UNL1        0.0437
     14 C          13.5671   35.2169    9.6343 C.3     1  UNL1        0.0437
     15 C          16.9556   43.5368    7.7050 C.2     1  UNL1        0.3625
     16 O          18.1945   43.7053    7.5381 O.2     1  UNL1       -0.2431
     17 O          16.0489   44.5487    7.3738 O.3     1  UNL1       -0.4443
     18 C          14.3138   44.3194    5.7092 C.3     1  UNL1        0.0513
     19 C          15.6975   44.8548    6.0294 C.3     1  UNL1        0.2089
@<TRIPOS>BOND
     1    18    19    1
     2    19    17    1
     3    15    17    1
     4    15     1    1
     5     2     4   ar
     6     2     8    1
     7     6    10    1
     8    11    10    1
     9    11    12    1
    10    11    13    1
    11    11    14    1
    12     3     1   ar
    13     5     4   ar
    14     8     6   am
    15    15    16    2
    16     1     5   ar
    17     2     3   ar
    18     6     7    2
    19     8     9    1
