@<TRIPOS>MOLECULE
MolPort-007-723-073 6818070 ChemDiv-E157-3283 MCULE-8285572804 PubChem-22517686 ZINC000006818070 ZINC06818070
 20 22 0 0 0
SMALL
GASTEIGER

@<TRIPOS>ATOM
      1 C           8.0585   42.0259    7.8453 C.ar    1  UNL1        0.1643
      2 C           9.3113   41.3680    6.2933 C.ar    1  UNL1        0.2195
      3 C          11.4875   41.7720    7.1436 C.ar    1  UNL1        0.1882
      4 N           7.2666   41.5882    6.8288 N.ar    1  UNL1       -0.1310
      5 N           8.0631   41.1667    5.8377 N.ar    1  UNL1       -0.1202
      6 N          10.5167   42.1375    8.0284 N.ar    1  UNL1       -0.1399
      7 N           9.3351   41.8833    7.4913 N.ar    1  UNL1       -0.1881
      8 S          10.8455   41.1275    5.6684 S.2     1  UNL1       -0.0111
      9 C          13.7665   42.9105    6.8976 C.2     1  UNL1        0.2570
     10 N          12.8786   41.9289    7.4476 N.am    1  UNL1       -0.2588
     11 O          13.3580   43.7536    6.0552 O.2     1  UNL1       -0.2692
     12 H          13.2633   41.2994    8.0996 H       1  UNL1        0.1571
     13 C          15.1710   42.9336    7.3212 C.ar    1  UNL1        0.0831
     14 C          15.8081   41.9524    8.0648 C.ar    1  UNL1        0.0116
     15 C          17.1550   42.2514    8.3170 C.ar    1  UNL1        0.0076
     16 C          17.5879   43.4613    7.7787 C.ar    1  UNL1        0.0356
     17 S          16.2741   44.1518    6.9865 S.2     1  UNL1       -0.0819
     18 C           7.5781   42.6043    9.1357 C.3     1  UNL1        0.0677
     19 C           7.1859   41.5751   11.3755 C.3     1  UNL1        0.0005
     20 C           6.7609   41.5901    9.9193 C.3     1  UNL1        0.0080
@<TRIPOS>BOND
     1    19    20    1
     2    20    18    1
     3    18     1    1
     4     2     8   ar
     5     3     8   ar
     6     3    10    1
     7     9    13    1
     8    13    17   ar
     9    14    15   ar
    10    16    17   ar
    11     4     5   ar
    12    10     9   am
    13     7     6   ar
    14     7     1   ar
    15     7     2   ar
    16     1     4   ar
    17     2     5   ar
    18     3     6   ar
    19     9    11    2
    20    13    14   ar
    21    15    16   ar
    22    10    12    1
@<TRIPOS>MOLECULE
MolPort-007-723-073 6818070 ChemDiv-E157-3283 MCULE-8285572804 PubChem-22517686 ZINC000006818070 ZINC06818070
 20 22 0 0 0
SMALL
GASTEIGER

@<TRIPOS>ATOM
      1 C           3.9675   43.0269    9.1961 C.ar    1  UNL1        0.1643
      2 C           5.6428   44.0864    8.5020 C.ar    1  UNL1        0.2195
      3 C           7.4489   42.6326    8.9987 C.ar    1  UNL1        0.1882
      4 N           3.5302   44.2136    8.6935 N.ar    1  UNL1       -0.1310
      5 N           4.5967   44.8911    8.2488 N.ar    1  UNL1       -0.1202
      6 N           6.2496   42.1066    9.3783 N.ar    1  UNL1       -0.1399
      7 N           5.2925   42.9659    9.0705 N.ar    1  UNL1       -0.1881
      8 S           7.2972   44.1991    8.2731 S.2     1  UNL1       -0.0111
      9 C           9.8299   42.4056    9.9096 C.2     1  UNL1        0.2570
     10 N           8.6779   41.9259    9.2044 N.am    1  UNL1       -0.2588
     11 O           9.8404   43.5541   10.4274 O.2     1  UNL1       -0.2692
     12 H           8.7372   41.0202    8.8231 H       1  UNL1        0.1571
     13 C          11.0136   41.5471   10.0301 C.ar    1  UNL1        0.0831
     14 C          11.2708   40.6645   11.0676 C.ar    1  UNL1        0.0116
     15 C          12.4839   39.9789   10.9086 C.ar    1  UNL1        0.0076
     16 C          13.1880   40.3125    9.7537 C.ar    1  UNL1        0.0356
     17 S          12.2817   41.4697    8.9353 S.2     1  UNL1       -0.0819
     18 C           3.1082   41.9760    9.8188 C.3     1  UNL1        0.0677
     19 C           3.9937   40.4302   11.5671 C.3     1  UNL1        0.0005
     20 C           3.4286   41.8117   11.2956 C.3     1  UNL1        0.0080
@<TRIPOS>BOND
     1    19    20    1
     2    20    18    1
     3    18     1    1
     4     2     8   ar
     5     3     8   ar
     6     3    10    1
     7     9    13    1
     8    13    17   ar
     9    14    15   ar
    10    16    17   ar
    11     4     5   ar
    12    10     9   am
    13     7     6   ar
    14     7     1   ar
    15     7     2   ar
    16     1     4   ar
    17     2     5   ar
    18     3     6   ar
    19     9    11    2
    20    13    14   ar
    21    15    16   ar
    22    10    12    1
@<TRIPOS>MOLECULE
MolPort-007-723-073 6818070 ChemDiv-E157-3283 MCULE-8285572804 PubChem-22517686 ZINC000006818070 ZINC06818070
 20 22 0 0 0
SMALL
GASTEIGER

@<TRIPOS>ATOM
      1 C           7.5806   40.8892    6.4247 C.ar    1  UNL1        0.1643
      2 C           9.1558   39.9883    5.3673 C.ar    1  UNL1        0.2195
      3 C          10.9776   41.4566    5.7513 C.ar    1  UNL1        0.1882
      4 N           7.0945   39.7642    5.8330 N.ar    1  UNL1       -0.1310
      5 N           8.0975   39.1867    5.1587 N.ar    1  UNL1       -0.1202
      6 N           9.8407   41.8783    6.3746 N.ar    1  UNL1       -0.1399
      7 N           8.8716   41.0150    6.1198 N.ar    1  UNL1       -0.1881
      8 S          10.7532   39.9832    4.8668 S.2     1  UNL1       -0.0111
      9 C          13.2807   41.9425    6.7564 C.2     1  UNL1        0.2570
     10 N          12.2029   42.1927    5.8451 N.am    1  UNL1       -0.2588
     11 O          13.2183   40.9999    7.5899 O.2     1  UNL1       -0.2692
     12 H          12.3161   42.9459    5.2213 H       1  UNL1        0.1571
     13 C          14.4732   42.7963    6.7181 C.ar    1  UNL1        0.0831
     14 C          15.6365   42.5945    7.4445 C.ar    1  UNL1        0.0116
     15 C          16.6064   43.5776    7.2001 C.ar    1  UNL1        0.0076
     16 C          16.2192   44.5554    6.2863 C.ar    1  UNL1        0.0356
     17 S          14.6568   44.1798    5.7881 S.2     1  UNL1       -0.0819
     18 C           6.7902   41.8476    7.2537 C.3     1  UNL1        0.0677
     19 C           5.7852   44.1294    7.3680 C.3     1  UNL1        0.0005
     20 C           6.6857   43.2027    6.5732 C.3     1  UNL1        0.0080
@<TRIPOS>BOND
     1    19    20    1
     2    20    18    1
     3    18     1    1
     4     2     8   ar
     5     3     8   ar
     6     3    10    1
     7     9    13    1
     8    13    17   ar
     9    14    15   ar
    10    16    17   ar
    11     4     5   ar
    12    10     9   am
    13     7     6   ar
    14     7     1   ar
    15     7     2   ar
    16     1     4   ar
    17     2     5   ar
    18     3     6   ar
    19     9    11    2
    20    13    14   ar
    21    15    16   ar
    22    10    12    1
@<TRIPOS>MOLECULE
MolPort-007-723-073 6818070 ChemDiv-E157-3283 MCULE-8285572804 PubChem-22517686 ZINC000006818070 ZINC06818070
 20 22 0 0 0
SMALL
GASTEIGER

@<TRIPOS>ATOM
      1 C          14.9057   40.8006    9.1559 C.ar    1  UNL1        0.1643
      2 C          13.2378   39.9343   10.0931 C.ar    1  UNL1        0.2195
      3 C          11.4039   40.9360    8.9725 C.ar    1  UNL1        0.1882
      4 N          15.3627   39.9530   10.1175 N.ar    1  UNL1       -0.1310
      5 N          14.3008   39.3979   10.7163 N.ar    1  UNL1       -0.1202
      6 N          12.6006   41.3773    8.4907 N.ar    1  UNL1       -0.1399
      7 N          13.5735   40.7783    9.1570 N.ar    1  UNL1       -0.1881
      8 S          11.5785   39.7833   10.2549 S.2     1  UNL1       -0.0111
      9 C           9.5184   42.6530    8.7551 C.2     1  UNL1        0.2570
     10 N          10.1601   41.4099    8.4429 N.am    1  UNL1       -0.2588
     11 O          10.0369   43.4629    9.5690 O.2     1  UNL1       -0.2692
     12 H           9.7000   40.8231    7.8001 H       1  UNL1        0.1571
     13 C           8.2396   42.9869    8.1181 C.ar    1  UNL1        0.0831
     14 C           7.8245   42.5625    6.8654 C.ar    1  UNL1        0.0116
     15 C           6.5520   43.0433    6.5237 C.ar    1  UNL1        0.0076
     16 C           5.9578   43.8446    7.4963 C.ar    1  UNL1        0.0356
     17 S           7.0356   43.9458    8.7841 S.2     1  UNL1       -0.0819
     18 C          15.7560   41.6458    8.2652 C.3     1  UNL1        0.0677
     19 C          17.6256   43.2681    8.5852 C.3     1  UNL1        0.0005
     20 C          17.1347   41.8608    8.8679 C.3     1  UNL1        0.0080
@<TRIPOS>BOND
     1    19    20    1
     2    20    18    1
     3    18     1    1
     4     2     8   ar
     5     3     8   ar
     6     3    10    1
     7     9    13    1
     8    13    17   ar
     9    14    15   ar
    10    16    17   ar
    11     4     5   ar
    12    10     9   am
    13     7     6   ar
    14     7     1   ar
    15     7     2   ar
    16     1     4   ar
    17     2     5   ar
    18     3     6   ar
    19     9    11    2
    20    13    14   ar
    21    15    16   ar
    22    10    12    1
@<TRIPOS>MOLECULE
MolPort-007-723-073 6818070 ChemDiv-E157-3283 MCULE-8285572804 PubChem-22517686 ZINC000006818070 ZINC06818070
 20 22 0 0 0
SMALL
GASTEIGER

@<TRIPOS>ATOM
      1 C           4.0078   42.9514    9.2736 C.ar    1  UNL1        0.1643
      2 C           5.8446   43.7597    8.6540 C.ar    1  UNL1        0.2195
      3 C           7.3966   42.0450    9.1767 C.ar    1  UNL1        0.1882
      4 N           3.7691   44.1978    8.7822 N.ar    1  UNL1       -0.1310
      5 N           4.9389   44.7155    8.3851 N.ar    1  UNL1       -0.1202
      6 N           6.1203   41.6979    9.5078 N.ar    1  UNL1       -0.1399
      7 N           5.3126   42.6953    9.1881 N.ar    1  UNL1       -0.1881
      8 S           7.5042   43.6279    8.4793 S.2     1  UNL1       -0.0111
      9 C           9.8865   41.5179    9.4468 C.2     1  UNL1        0.2570
     10 N           8.4993   41.1597    9.4060 N.am    1  UNL1       -0.2588
     11 O          10.2528   42.7104    9.2711 O.2     1  UNL1       -0.2692
     12 H           8.2825   40.2102    9.5498 H       1  UNL1        0.1571
     13 C          10.8942   40.4812    9.6965 C.ar    1  UNL1        0.0831
     14 C          11.8317   40.4932   10.7176 C.ar    1  UNL1        0.0116
     15 C          12.6639   39.3643   10.7036 C.ar    1  UNL1        0.0076
     16 C          12.3918   38.4598    9.6795 C.ar    1  UNL1        0.0356
     17 S          11.1043   39.0832    8.7941 S.2     1  UNL1       -0.0819
     18 C           2.9813   42.0308    9.8475 C.3     1  UNL1        0.0677
     19 C           3.7047   40.6030   11.7627 C.3     1  UNL1        0.0005
     20 C           3.1120   41.9398   11.3591 C.3     1  UNL1        0.0080
@<TRIPOS>BOND
     1    19    20    1
     2    20    18    1
     3    18     1    1
     4     2     8   ar
     5     3     8   ar
     6     3    10    1
     7     9    13    1
     8    13    17   ar
     9    14    15   ar
    10    16    17   ar
    11     4     5   ar
    12    10     9   am
    13     7     6   ar
    14     7     1   ar
    15     7     2   ar
    16     1     4   ar
    17     2     5   ar
    18     3     6   ar
    19     9    11    2
    20    13    14   ar
    21    15    16   ar
    22    10    12    1
@<TRIPOS>MOLECULE
MolPort-007-723-073 6818070 ChemDiv-E157-3283 MCULE-8285572804 PubChem-22517686 ZINC000006818070 ZINC06818070
 20 22 0 0 0
SMALL
GASTEIGER

@<TRIPOS>ATOM
      1 C          14.2774   37.3378   11.2395 C.ar    1  UNL1        0.1643
      2 C          16.1677   38.2522   11.2020 C.ar    1  UNL1        0.2195
      3 C          15.8724   40.0477    9.6817 C.ar    1  UNL1        0.1882
      4 N          15.0963   36.6340   12.0678 N.ar    1  UNL1       -0.1310
      5 N          16.3027   37.2159   12.0468 N.ar    1  UNL1       -0.1202
      6 N          14.7290   39.3235    9.8461 N.ar    1  UNL1       -0.1399
      7 N          14.9657   38.3451   10.7041 N.ar    1  UNL1       -0.1881
      8 S          17.1941   39.4421   10.6251 S.2     1  UNL1       -0.0111
      9 C          14.8666   41.6585    7.9659 C.2     1  UNL1        0.2570
     10 N          15.9250   41.1799    8.8056 N.am    1  UNL1       -0.2588
     11 O          13.7487   41.0782    7.9388 O.2     1  UNL1       -0.2692
     12 H          16.7731   41.6792    8.7774 H       1  UNL1        0.1571
     13 C          15.0882   42.8408    7.1258 C.ar    1  UNL1        0.0831
     14 C          16.2294   43.6277    7.1211 C.ar    1  UNL1        0.0116
     15 C          16.1514   44.6914    6.2104 C.ar    1  UNL1        0.0076
     16 C          14.9575   44.7519    5.4950 C.ar    1  UNL1        0.0356
     17 S          14.0029   43.4661    6.0106 S.2     1  UNL1       -0.0819
     18 C          12.8482   37.0159   10.9492 C.3     1  UNL1        0.0677
     19 C          10.9990   37.5153    9.3489 C.3     1  UNL1        0.0005
     20 C          12.2198   38.0731   10.0560 C.3     1  UNL1        0.0080
@<TRIPOS>BOND
     1    19    20    1
     2    20    18    1
     3    18     1    1
     4     2     8   ar
     5     3     8   ar
     6     3    10    1
     7     9    13    1
     8    13    17   ar
     9    14    15   ar
    10    16    17   ar
    11     4     5   ar
    12    10     9   am
    13     7     6   ar
    14     7     1   ar
    15     7     2   ar
    16     1     4   ar
    17     2     5   ar
    18     3     6   ar
    19     9    11    2
    20    13    14   ar
    21    15    16   ar
    22    10    12    1
@<TRIPOS>MOLECULE
MolPort-007-723-073 6818070 ChemDiv-E157-3283 MCULE-8285572804 PubChem-22517686 ZINC000006818070 ZINC06818070
 20 22 0 0 0
SMALL
GASTEIGER

@<TRIPOS>ATOM
      1 C          14.3069   38.2383   10.9286 C.ar    1  UNL1        0.1643
      2 C          16.1584   37.3465   10.4956 C.ar    1  UNL1        0.2195
      3 C          15.7589   36.2365    8.4388 C.ar    1  UNL1        0.1882
      4 N          15.1622   38.5421   11.9427 N.ar    1  UNL1       -0.1310
      5 N          16.3445   37.9754   11.6686 N.ar    1  UNL1       -0.1202
      6 N          14.6517   36.8923    8.8895 N.ar    1  UNL1       -0.1399
      7 N          14.9468   37.4870   10.0335 N.ar    1  UNL1       -0.1881
      8 S          17.1196   36.4061    9.4986 S.2     1  UNL1       -0.0111
      9 C          16.7863   35.4569    6.2281 C.2     1  UNL1        0.2570
     10 N          15.7457   35.4950    7.2131 N.am    1  UNL1       -0.2588
     11 O          17.8489   36.1157    6.3829 O.2     1  UNL1       -0.2692
     12 H          14.9415   34.9580    7.0289 H       1  UNL1        0.1571
     13 C          16.6114   34.6393    5.0225 C.ar    1  UNL1        0.0831
     14 C          15.6890   33.6165    4.8653 C.ar    1  UNL1        0.0116
     15 C          15.7566   33.0145    3.6003 C.ar    1  UNL1        0.0076
     16 C          16.7252   33.5531    2.7562 C.ar    1  UNL1        0.0356
     17 S          17.4942   34.7859    3.6041 S.2     1  UNL1       -0.0819
     18 C          12.8737   38.6501   10.8461 C.3     1  UNL1        0.0677
     19 C          13.3242   40.6452    9.4156 C.3     1  UNL1        0.0005
     20 C          12.7441   40.1601   10.7307 C.3     1  UNL1        0.0080
@<TRIPOS>BOND
     1    19    20    1
     2    20    18    1
     3    18     1    1
     4     2     8   ar
     5     3     8   ar
     6     3    10    1
     7     9    13    1
     8    13    17   ar
     9    14    15   ar
    10    16    17   ar
    11     4     5   ar
    12    10     9   am
    13     7     6   ar
    14     7     1   ar
    15     7     2   ar
    16     1     4   ar
    17     2     5   ar
    18     3     6   ar
    19     9    11    2
    20    13    14   ar
    21    15    16   ar
    22    10    12    1
@<TRIPOS>MOLECULE
MolPort-007-723-073 6818070 ChemDiv-E157-3283 MCULE-8285572804 PubChem-22517686 ZINC000006818070 ZINC06818070
 20 22 0 0 0
SMALL
GASTEIGER

@<TRIPOS>ATOM
      1 C           4.9793   42.3288    9.2617 C.ar    1  UNL1        0.1643
      2 C           6.3307   43.8872    8.8667 C.ar    1  UNL1        0.2195
      3 C           8.4470   42.8474    9.1165 C.ar    1  UNL1        0.1882
      4 N           4.2552   43.4513    9.0016 N.ar    1  UNL1       -0.1310
      5 N           5.1147   44.4469    8.7480 N.ar    1  UNL1       -0.1202
      6 N           7.4205   41.9765    9.3331 N.ar    1  UNL1       -0.1399
      7 N           6.2764   42.6212    9.1757 N.ar    1  UNL1       -0.1881
      8 S           7.9025   44.4463    8.7282 S.2     1  UNL1       -0.0111
      9 C          10.5968   41.8162    8.1862 C.2     1  UNL1        0.2570
     10 N           9.8154   42.4353    9.2160 N.am    1  UNL1       -0.2588
     11 O          10.1010   41.5760    7.0532 O.2     1  UNL1       -0.2692
     12 H          10.2639   42.5932   10.0780 H       1  UNL1        0.1571
     13 C          11.9935   41.4568    8.4553 C.ar    1  UNL1        0.0831
     14 C          13.0724   41.7266    7.6277 C.ar    1  UNL1        0.0116
     15 C          14.2876   41.2612    8.1510 C.ar    1  UNL1        0.0076
     16 C          14.1781   40.6254    9.3858 C.ar    1  UNL1        0.0356
     17 S          12.5518   40.6507    9.8159 S.2     1  UNL1       -0.0819
     18 C           4.4156   40.9928    9.6193 C.3     1  UNL1        0.0677
     19 C           3.3205   41.4248   11.8202 C.3     1  UNL1        0.0005
     20 C           3.0899   41.1359   10.3489 C.3     1  UNL1        0.0080
@<TRIPOS>BOND
     1    19    20    1
     2    20    18    1
     3    18     1    1
     4     2     8   ar
     5     3     8   ar
     6     3    10    1
     7     9    13    1
     8    13    17   ar
     9    14    15   ar
    10    16    17   ar
    11     4     5   ar
    12    10     9   am
    13     7     6   ar
    14     7     1   ar
    15     7     2   ar
    16     1     4   ar
    17     2     5   ar
    18     3     6   ar
    19     9    11    2
    20    13    14   ar
    21    15    16   ar
    22    10    12    1
@<TRIPOS>MOLECULE
MolPort-007-723-073 6818070 ChemDiv-E157-3283 MCULE-8285572804 PubChem-22517686 ZINC000006818070 ZINC06818070
 20 22 0 0 0
SMALL
GASTEIGER

@<TRIPOS>ATOM
      1 C          16.7536   41.5956    8.7441 C.ar    1  UNL1        0.1643
      2 C          15.3997   40.0867    9.2929 C.ar    1  UNL1        0.2195
      3 C          13.3416   40.8519    8.3981 C.ar    1  UNL1        0.1882
      4 N          17.4412   40.6560    9.4486 N.ar    1  UNL1       -0.1310
      5 N          16.5803   39.6915    9.7990 N.ar    1  UNL1       -0.1202
      6 N          14.3653   41.7131    8.1350 N.ar    1  UNL1       -0.1399
      7 N          15.4769   41.2241    8.6591 N.ar    1  UNL1       -0.1881
      8 S          13.8459   39.4640    9.3053 S.2     1  UNL1       -0.0111
      9 C          11.0717   42.0248    8.5478 C.2     1  UNL1        0.2570
     10 N          12.0056   41.1148    7.9527 N.am    1  UNL1       -0.2588
     11 O          11.3818   42.6959    9.5679 O.2     1  UNL1       -0.2692
     12 H          11.6982   40.6209    7.1585 H       1  UNL1        0.1571
     13 C           9.7357   42.1768    7.9608 C.ar    1  UNL1        0.0831
     14 C           8.6708   42.8518    8.5369 C.ar    1  UNL1        0.0116
     15 C           7.5177   42.8284    7.7388 C.ar    1  UNL1        0.0076
     16 C           7.6625   42.1402    6.5362 C.ar    1  UNL1        0.0356
     17 S           9.2416   41.5628    6.4804 S.2     1  UNL1       -0.0819
     18 C          17.3268   42.8562    8.1848 C.3     1  UNL1        0.0677
     19 C          17.3930   43.9965    5.9655 C.3     1  UNL1        0.0005
     20 C          16.4994   43.3611    7.0139 C.3     1  UNL1        0.0080
@<TRIPOS>BOND
     1    19    20    1
     2    20    18    1
     3    18     1    1
     4     2     8   ar
     5     3     8   ar
     6     3    10    1
     7     9    13    1
     8    13    17   ar
     9    14    15   ar
    10    16    17   ar
    11     4     5   ar
    12    10     9   am
    13     7     6   ar
    14     7     1   ar
    15     7     2   ar
    16     1     4   ar
    17     2     5   ar
    18     3     6   ar
    19     9    11    2
    20    13    14   ar
    21    15    16   ar
    22    10    12    1
@<TRIPOS>MOLECULE
MolPort-007-723-073 6818070 ChemDiv-E157-3283 MCULE-8285572804 PubChem-22517686 ZINC000006818070 ZINC06818070
 20 22 0 0 0
SMALL
GASTEIGER

@<TRIPOS>ATOM
      1 C           3.1829   41.9352   11.0474 C.ar    1  UNL1        0.1643
      2 C           4.2954   41.9908    9.2669 C.ar    1  UNL1        0.2195
      3 C           6.4780   41.3886    9.9711 C.ar    1  UNL1        0.1882
      4 N           2.3430   42.3079   10.0437 N.ar    1  UNL1       -0.1310
      5 N           3.0497   42.3431    8.9063 N.ar    1  UNL1       -0.1202
      6 N           5.5921   41.4035   11.0075 N.ar    1  UNL1       -0.1399
      7 N           4.4013   41.7439   10.5433 N.ar    1  UNL1       -0.1881
      8 S           5.7499   41.8145    8.4572 S.2     1  UNL1       -0.0111
      9 C           8.9872   41.7237    9.5939 C.2     1  UNL1        0.2570
     10 N           7.8570   41.0533   10.1665 N.am    1  UNL1       -0.2588
     11 O           8.8342   42.7143    8.8307 O.2     1  UNL1       -0.2692
     12 H           8.0475   40.2857   10.7527 H       1  UNL1        0.1571
     13 C          10.3412   41.2494    9.9006 C.ar    1  UNL1        0.0831
     14 C          10.6902   40.4294   10.9625 C.ar    1  UNL1        0.0116
     15 C          12.0627   40.1433   10.9990 C.ar    1  UNL1        0.0076
     16 C          12.8018   40.7306    9.9744 C.ar    1  UNL1        0.0356
     17 S          11.7257   41.6086    9.0250 S.2     1  UNL1       -0.0819
     18 C           2.8106   41.7955   12.4870 C.3     1  UNL1        0.0677
     19 C           0.8833   41.8832   14.0706 C.3     1  UNL1        0.0005
     20 C           1.4442   42.4025   12.7602 C.3     1  UNL1        0.0080
@<TRIPOS>BOND
     1    19    20    1
     2    20    18    1
     3    18     1    1
     4     2     8   ar
     5     3     8   ar
     6     3    10    1
     7     9    13    1
     8    13    17   ar
     9    14    15   ar
    10    16    17   ar
    11     4     5   ar
    12    10     9   am
    13     7     6   ar
    14     7     1   ar
    15     7     2   ar
    16     1     4   ar
    17     2     5   ar
    18     3     6   ar
    19     9    11    2
    20    13    14   ar
    21    15    16   ar
    22    10    12    1
