@<TRIPOS>MOLECULE
Molport-052-050-742 MCULE-8882121640
 25 27 0 0 0
SMALL
GASTEIGER

@<TRIPOS>ATOM
      1 C          12.2514   39.6977    8.1137 C.ar    1  UNL1        0.1414
      2 C          10.3373   39.5817    6.7312 C.ar    1  UNL1        0.0635
      3 C           9.0700   38.9062    6.3500 C.3     1  UNL1        0.0522
      4 C          10.7555   40.7183    6.0426 C.ar    1  UNL1        0.0492
      5 C          11.9529   41.3330    6.4243 C.ar    1  UNL1        0.1361
      6 N          11.0880   39.0920    7.7508 N.ar    1  UNL1       -0.2348
      7 N          12.6720   40.8075    7.4513 N.ar    1  UNL1       -0.2159
      8 C          13.0724   39.1558    9.2362 C.3     1  UNL1        0.0785
      9 C          12.7240   39.8599   10.5493 C.3     1  UNL1        0.0110
     10 C          13.5659   39.2987   11.6933 C.3     1  UNL1        0.0220
     11 C          15.0493   39.4660   11.3790 C.3     1  UNL1        0.0935
     12 C          16.3471   37.8436    9.9445 C.2     1  UNL1        0.2556
     13 C          14.5630   39.2970    8.9284 C.3     1  UNL1        0.1009
     14 N          15.3429   38.8597   10.0828 N.am    1  UNL1       -0.2771
     15 O          16.5794   37.3322    8.8165 O.2     1  UNL1       -0.2722
     16 C          17.1561   37.3989   11.1170 C.3     1  UNL1        0.2232
     17 O          16.3065   37.0217   12.1564 O.3     1  UNL1       -0.3737
     18 H          15.7558   37.7774   12.4143 H       1  UNL1        0.2110
     19 N          12.4446   42.5052    5.7613 N.pl3   1  UNL1       -0.2781
     20 H          11.8973   42.8581    5.0230 H       1  UNL1        0.1555
     21 C          13.6515   43.2151    6.0641 C.ar    1  UNL1        0.1646
     22 C          15.8419   43.9786    6.8864 C.ar    1  UNL1        0.0588
     23 C          15.1675   44.8683    6.0490 C.ar    1  UNL1        0.1079
     24 N          13.9568   44.4421    5.5966 N.ar    1  UNL1       -0.2224
     25 S          14.8628   42.6165    7.0492 S.2     1  UNL1       -0.0508
@<TRIPOS>BOND
     1     1     7   ar
     2     8     1    1
     3     8     9    1
     4     9    10    1
     5    10    11    1
     6    11    14    1
     7    16    12    1
     8    16    17    1
     9    13    14    1
    10    13     8    1
    11     2     6   ar
    12     3     2    1
    13     4     5   ar
    14     5    19    1
    15    21    25   ar
    16    22    25   ar
    17    23    24   ar
    18    14    12   am
    19    19    21    1
    20     1     6   ar
    21    12    15    2
    22     2     4   ar
    23     5     7   ar
    24    21    24   ar
    25    22    23   ar
    26    19    20    1
    27    17    18    1
@<TRIPOS>MOLECULE
Molport-052-050-742 MCULE-8882121640
 25 27 0 0 0
SMALL
GASTEIGER

@<TRIPOS>ATOM
      1 C          13.2438   40.2271    9.4751 C.ar    1  UNL1        0.1414
      2 C          11.3637   41.5907    9.9165 C.ar    1  UNL1        0.0635
      3 C          10.2235   41.9568   10.7960 C.3     1  UNL1        0.0522
      4 C          11.5809   42.2885    8.7304 C.ar    1  UNL1        0.0492
      5 C          12.6627   41.9213    7.9228 C.ar    1  UNL1        0.1361
      6 N          12.1944   40.5763   10.2683 N.ar    1  UNL1       -0.2348
      7 N          13.4683   40.8990    8.3152 N.ar    1  UNL1       -0.2159
      8 C          14.1548   39.1118    9.8673 C.3     1  UNL1        0.0785
      9 C          13.5114   38.2444   10.9512 C.3     1  UNL1        0.0110
     10 C          14.4480   37.1043   11.3456 C.3     1  UNL1        0.0220
     11 C          15.7772   37.6688   11.8374 C.3     1  UNL1        0.0935
     12 C          17.6466   38.3495   10.2832 C.2     1  UNL1        0.2556
     13 C          15.5000   39.6595   10.3439 C.3     1  UNL1        0.1009
     14 N          16.3329   38.5593   10.8215 N.am    1  UNL1       -0.2771
     15 O          18.1027   39.1287    9.4041 O.2     1  UNL1       -0.2722
     16 C          18.5084   37.2343   10.7737 C.3     1  UNL1        0.2232
     17 O          17.9133   36.6358   11.8837 O.3     1  UNL1       -0.3737
     18 H          17.8080   37.2940   12.5883 H       1  UNL1        0.2110
     19 N          12.9469   42.5946    6.6894 N.pl3   1  UNL1       -0.2781
     20 H          12.3199   42.4398    5.9464 H       1  UNL1        0.1555
     21 C          14.0506   43.4698    6.4285 C.ar    1  UNL1        0.1646
     22 C          16.2243   44.6181    6.3115 C.ar    1  UNL1        0.0588
     23 C          15.1898   45.2077    5.5836 C.ar    1  UNL1        0.1079
     24 N          13.9897   44.5694    5.6510 N.ar    1  UNL1       -0.2224
     25 S          15.5842   43.2489    7.0573 S.2     1  UNL1       -0.0508
@<TRIPOS>BOND
     1     1     7   ar
     2     8     1    1
     3     8     9    1
     4     9    10    1
     5    10    11    1
     6    11    14    1
     7    16    12    1
     8    16    17    1
     9    13    14    1
    10    13     8    1
    11     2     6   ar
    12     3     2    1
    13     4     5   ar
    14     5    19    1
    15    21    25   ar
    16    22    25   ar
    17    23    24   ar
    18    14    12   am
    19    19    21    1
    20     1     6   ar
    21    12    15    2
    22     2     4   ar
    23     5     7   ar
    24    21    24   ar
    25    22    23   ar
    26    19    20    1
    27    17    18    1
@<TRIPOS>MOLECULE
Molport-052-050-742 MCULE-8882121640
 25 27 0 0 0
SMALL
GASTEIGER

@<TRIPOS>ATOM
      1 C          12.2010   39.6727    8.6761 C.ar    1  UNL1        0.1414
      2 C          11.2513   41.6765    9.4955 C.ar    1  UNL1        0.0635
      3 C          10.4775   42.3950   10.5408 C.3     1  UNL1        0.0522
      4 C          11.7285   42.3671    8.3836 C.ar    1  UNL1        0.0492
      5 C          12.4542   41.6640    7.4160 C.ar    1  UNL1        0.1361
      6 N          11.4940   40.3470    9.6236 N.ar    1  UNL1       -0.2348
      7 N          12.6730   40.3331    7.5860 N.ar    1  UNL1       -0.2159
      8 C          12.4660   38.2112    8.8224 C.3     1  UNL1        0.0785
      9 C          11.6537   37.6280    9.9806 C.3     1  UNL1        0.0110
     10 C          11.9281   36.1324   10.1227 C.3     1  UNL1        0.0220
     11 C          13.4183   35.8953   10.3476 C.3     1  UNL1        0.0935
     12 C          15.0969   35.7825    8.4652 C.2     1  UNL1        0.2556
     13 C          13.9587   37.9540    9.0284 C.3     1  UNL1        0.1009
     14 N          14.1791   36.5317    9.2752 N.am    1  UNL1       -0.2771
     15 O          15.7387   36.3527    7.5428 O.2     1  UNL1       -0.2722
     16 C          15.3361   34.3313    8.7179 C.3     1  UNL1        0.2232
     17 O          16.6910   34.1165    8.9679 O.3     1  UNL1       -0.3737
     18 H          17.2104   34.3984    8.1987 H       1  UNL1        0.2110
     19 N          12.9755   42.3091    6.2466 N.pl3   1  UNL1       -0.2781
     20 H          12.5761   42.0517    5.3844 H       1  UNL1        0.1555
     21 C          14.0186   43.2901    6.2054 C.ar    1  UNL1        0.1646
     22 C          16.0774   44.6129    6.4669 C.ar    1  UNL1        0.0588
     23 C          15.0886   45.1866    5.6664 C.ar    1  UNL1        0.1079
     24 N          13.9518   44.4517    5.5246 N.ar    1  UNL1       -0.2224
     25 S          15.4794   43.1315    7.0036 S.2     1  UNL1       -0.0508
@<TRIPOS>BOND
     1     1     7   ar
     2     8     1    1
     3     8     9    1
     4     9    10    1
     5    10    11    1
     6    11    14    1
     7    16    12    1
     8    16    17    1
     9    13    14    1
    10    13     8    1
    11     2     6   ar
    12     3     2    1
    13     4     5   ar
    14     5    19    1
    15    21    25   ar
    16    22    25   ar
    17    23    24   ar
    18    14    12   am
    19    19    21    1
    20     1     6   ar
    21    12    15    2
    22     2     4   ar
    23     5     7   ar
    24    21    24   ar
    25    22    23   ar
    26    19    20    1
    27    17    18    1
@<TRIPOS>MOLECULE
Molport-052-050-742 MCULE-8882121640
 25 27 0 0 0
SMALL
GASTEIGER

@<TRIPOS>ATOM
      1 C          10.4782   40.9882    8.5966 C.ar    1  UNL1        0.1414
      2 C          12.6380   40.5707    9.4625 C.ar    1  UNL1        0.0635
      3 C          13.5050   39.9976   10.5244 C.3     1  UNL1        0.0522
      4 C          13.2106   41.2122    8.3663 C.ar    1  UNL1        0.0492
      5 C          12.3689   41.7418    7.3822 C.ar    1  UNL1        0.1361
      6 N          11.2878   40.4692    9.5597 N.ar    1  UNL1       -0.2348
      7 N          11.0224   41.6166    7.5214 N.ar    1  UNL1       -0.2159
      8 C           8.9943   40.8727    8.7079 C.3     1  UNL1        0.0785
      9 C           8.3260   41.1868    7.3678 C.3     1  UNL1        0.0110
     10 C           6.8084   41.0644    7.4886 C.3     1  UNL1        0.0220
     11 C           6.2944   42.0077    8.5718 C.3     1  UNL1        0.0935
     12 C           6.2989   41.4215   11.0275 C.2     1  UNL1        0.2556
     13 C           8.4644   41.7973    9.8038 C.3     1  UNL1        0.1009
     14 N           7.0051   41.7466    9.8211 N.am    1  UNL1       -0.2771
     15 O           6.9342   41.1958   12.0921 O.2     1  UNL1       -0.2722
     16 C           4.8075   41.3784   11.0564 C.3     1  UNL1        0.2232
     17 O           4.3237   42.4249   11.8409 O.3     1  UNL1       -0.3737
     18 H           4.6651   42.3361   12.7445 H       1  UNL1        0.2110
     19 N          12.8876   42.4146    6.2274 N.pl3   1  UNL1       -0.2781
     20 H          12.4577   42.2096    5.3658 H       1  UNL1        0.1555
     21 C          13.9679   43.3550    6.1999 C.ar    1  UNL1        0.1646
     22 C          16.0877   44.5795    6.4535 C.ar    1  UNL1        0.0588
     23 C          15.0943   45.2360    5.7256 C.ar    1  UNL1        0.1079
     24 N          13.9238   44.5554    5.5879 N.ar    1  UNL1       -0.2224
     25 S          15.4495   43.0942    6.9300 S.2     1  UNL1       -0.0508
@<TRIPOS>BOND
     1     1     7   ar
     2     8     1    1
     3     8     9    1
     4     9    10    1
     5    10    11    1
     6    11    14    1
     7    16    12    1
     8    16    17    1
     9    13    14    1
    10    13     8    1
    11     2     6   ar
    12     3     2    1
    13     4     5   ar
    14     5    19    1
    15    21    25   ar
    16    22    25   ar
    17    23    24   ar
    18    14    12   am
    19    19    21    1
    20     1     6   ar
    21    12    15    2
    22     2     4   ar
    23     5     7   ar
    24    21    24   ar
    25    22    23   ar
    26    19    20    1
    27    17    18    1
@<TRIPOS>MOLECULE
Molport-052-050-742 MCULE-8882121640
 25 27 0 0 0
SMALL
GASTEIGER

@<TRIPOS>ATOM
      1 C          11.9186   41.5134    7.7950 C.ar    1  UNL1        0.1414
      2 C          13.8179   40.7099    8.9508 C.ar    1  UNL1        0.0635
      3 C          14.4051   39.8495   10.0104 C.3     1  UNL1        0.0522
      4 C          14.6465   41.4945    8.1516 C.ar    1  UNL1        0.0492
      5 C          14.0649   42.2942    7.1618 C.ar    1  UNL1        0.1361
      6 N          12.4739   40.7315    8.7607 N.ar    1  UNL1       -0.2348
      7 N          12.7143   42.2840    7.0076 N.ar    1  UNL1       -0.2159
      8 C          10.4404   41.5325    7.5895 C.3     1  UNL1        0.0785
      9 C           9.7472   42.2929    8.7220 C.3     1  UNL1        0.0110
     10 C           8.2357   42.3103    8.5038 C.3     1  UNL1        0.0220
     11 C           7.7050   40.8825    8.4208 C.3     1  UNL1        0.0935
     12 C           7.7559   39.5127    6.3007 C.2     1  UNL1        0.2556
     13 C           9.8944   40.1086    7.4837 C.3     1  UNL1        0.1009
     14 N           8.4378   40.1505    7.3906 N.am    1  UNL1       -0.2771
     15 O           8.4102   38.8907    5.4214 O.2     1  UNL1       -0.2722
     16 C           6.2670   39.5414    6.2041 C.3     1  UNL1        0.2232
     17 O           5.8507   40.7947    5.7566 O.3     1  UNL1       -0.3737
     18 H           6.1452   41.4755    6.3817 H       1  UNL1        0.2110
     19 N          14.8552   43.1266    6.3029 N.pl3   1  UNL1       -0.2781
     20 H          14.4296   43.4325    5.4695 H       1  UNL1        0.1555
     21 C          16.2015   43.5585    6.5341 C.ar    1  UNL1        0.1646
     22 C          18.3859   44.2026    7.4671 C.ar    1  UNL1        0.0588
     23 C          18.2679   44.3039    6.0802 C.ar    1  UNL1        0.1079
     24 N          17.0583   43.9468    5.5686 N.ar    1  UNL1       -0.2224
     25 S          16.9062   43.6428    8.0482 S.2     1  UNL1       -0.0508
@<TRIPOS>BOND
     1     1     7   ar
     2     8     1    1
     3     8     9    1
     4     9    10    1
     5    10    11    1
     6    11    14    1
     7    16    12    1
     8    16    17    1
     9    13    14    1
    10    13     8    1
    11     2     6   ar
    12     3     2    1
    13     4     5   ar
    14     5    19    1
    15    21    25   ar
    16    22    25   ar
    17    23    24   ar
    18    14    12   am
    19    19    21    1
    20     1     6   ar
    21    12    15    2
    22     2     4   ar
    23     5     7   ar
    24    21    24   ar
    25    22    23   ar
    26    19    20    1
    27    17    18    1
@<TRIPOS>MOLECULE
Molport-052-050-742 MCULE-8882121640
 25 27 0 0 0
SMALL
GASTEIGER

@<TRIPOS>ATOM
      1 C          12.1315   41.1477    9.5173 C.ar    1  UNL1        0.1414
      2 C          13.6721   39.7860   10.6839 C.ar    1  UNL1        0.0635
      3 C          13.9631   38.8349   11.7877 C.3     1  UNL1        0.0522
      4 C          14.6880   40.1753    9.8136 C.ar    1  UNL1        0.0492
      5 C          14.3838   41.0720    8.7835 C.ar    1  UNL1        0.1361
      6 N          12.4163   40.2758   10.5227 N.ar    1  UNL1       -0.2348
      7 N          13.1122   41.5364    8.6604 N.ar    1  UNL1       -0.2159
      8 C          10.7487   41.6822    9.3439 C.3     1  UNL1        0.0785
      9 C           9.9353   41.5031   10.6274 C.3     1  UNL1        0.0110
     10 C           8.5229   42.0542   10.4433 C.3     1  UNL1        0.0220
     11 C           7.8366   41.3491    9.2775 C.3     1  UNL1        0.0935
     12 C           8.1607   42.0313    6.8685 C.2     1  UNL1        0.2556
     13 C          10.0531   41.0001    8.1659 C.3     1  UNL1        0.1009
     14 N           8.6700   41.4609    8.0830 N.am    1  UNL1       -0.2771
     15 O           8.9003   42.1213    5.8522 O.2     1  UNL1       -0.2722
     16 C           6.7453   42.4945    6.7721 C.3     1  UNL1        0.2232
     17 O           6.3299   42.4572    5.4415 O.3     1  UNL1       -0.3737
     18 H           6.8952   43.0392    4.9098 H       1  UNL1        0.2110
     19 N          15.3782   41.5161    7.8511 N.pl3   1  UNL1       -0.2781
     20 H          16.1384   40.9107    7.6935 H       1  UNL1        0.1555
     21 C          15.3779   42.7513    7.1256 C.ar    1  UNL1        0.1646
     22 C          14.8937   44.6797    5.6751 C.ar    1  UNL1        0.0588
     23 C          16.0790   44.7575    6.4077 C.ar    1  UNL1        0.1079
     24 N          16.3428   43.6891    7.2083 N.ar    1  UNL1       -0.2224
     25 S          14.1696   43.2083    6.0638 S.2     1  UNL1       -0.0508
@<TRIPOS>BOND
     1     1     7   ar
     2     8     1    1
     3     8     9    1
     4     9    10    1
     5    10    11    1
     6    11    14    1
     7    16    12    1
     8    16    17    1
     9    13    14    1
    10    13     8    1
    11     2     6   ar
    12     3     2    1
    13     4     5   ar
    14     5    19    1
    15    21    25   ar
    16    22    25   ar
    17    23    24   ar
    18    14    12   am
    19    19    21    1
    20     1     6   ar
    21    12    15    2
    22     2     4   ar
    23     5     7   ar
    24    21    24   ar
    25    22    23   ar
    26    19    20    1
    27    17    18    1
@<TRIPOS>MOLECULE
Molport-052-050-742 MCULE-8882121640
 25 27 0 0 0
SMALL
GASTEIGER

@<TRIPOS>ATOM
      1 C           9.8786   41.8597    7.5372 C.ar    1  UNL1        0.1414
      2 C          10.6919   40.8364    5.5674 C.ar    1  UNL1        0.0635
      3 C          10.4313   40.0997    4.3037 C.3     1  UNL1        0.0522
      4 C          11.9970   41.1703    5.9228 C.ar    1  UNL1        0.0492
      5 C          12.2114   41.8643    7.1185 C.ar    1  UNL1        0.1361
      6 N           9.6586   41.1847    6.3760 N.ar    1  UNL1       -0.2348
      7 N          11.1463   42.1925    7.8969 N.ar    1  UNL1       -0.2159
      8 C           8.7388   42.2414    8.4219 C.3     1  UNL1        0.0785
      9 C           8.7291   41.3854    9.6901 C.3     1  UNL1        0.0110
     10 C           7.5619   41.7830   10.5914 C.3     1  UNL1        0.0220
     11 C           6.2451   41.6284    9.8368 C.3     1  UNL1        0.0935
     12 C           5.3327   43.3925    8.2782 C.2     1  UNL1        0.2556
     13 C           7.4117   42.1116    7.6744 C.3     1  UNL1        0.1009
     14 N           6.3076   42.3863    8.5896 N.am    1  UNL1       -0.2771
     15 O           5.4100   44.0365    7.1978 O.2     1  UNL1       -0.2722
     16 C           4.1950   43.6717    9.2028 C.3     1  UNL1        0.2232
     17 O           3.0329   43.0818    8.7070 O.3     1  UNL1       -0.3737
     18 H           2.8325   43.4481    7.8315 H       1  UNL1        0.2110
     19 N          13.5265   42.2408    7.5475 N.pl3   1  UNL1       -0.2781
     20 H          13.8807   41.7813    8.3429 H       1  UNL1        0.1555
     21 C          14.3776   43.2176    6.9362 C.ar    1  UNL1        0.1646
     22 C          16.2423   44.6285    6.1684 C.ar    1  UNL1        0.0588
     23 C          14.9829   44.9701    5.6735 C.ar    1  UNL1        0.1079
     24 N          13.9547   44.1873    6.1007 N.ar    1  UNL1       -0.2224
     25 S          16.0309   43.2937    7.1754 S.2     1  UNL1       -0.0508
@<TRIPOS>BOND
     1     1     7   ar
     2     8     1    1
     3     8     9    1
     4     9    10    1
     5    10    11    1
     6    11    14    1
     7    16    12    1
     8    16    17    1
     9    13    14    1
    10    13     8    1
    11     2     6   ar
    12     3     2    1
    13     4     5   ar
    14     5    19    1
    15    21    25   ar
    16    22    25   ar
    17    23    24   ar
    18    14    12   am
    19    19    21    1
    20     1     6   ar
    21    12    15    2
    22     2     4   ar
    23     5     7   ar
    24    21    24   ar
    25    22    23   ar
    26    19    20    1
    27    17    18    1
@<TRIPOS>MOLECULE
Molport-052-050-742 MCULE-8882121640
 25 27 0 0 0
SMALL
GASTEIGER

@<TRIPOS>ATOM
      1 C          13.2756   40.2006    9.0584 C.ar    1  UNL1        0.1414
      2 C          14.6593   39.1661   10.6720 C.ar    1  UNL1        0.0635
      3 C          14.8225   38.2101   11.7977 C.3     1  UNL1        0.0522
      4 C          15.7541   39.8949   10.2126 C.ar    1  UNL1        0.0492
      5 C          15.5700   40.7873    9.1509 C.ar    1  UNL1        0.1361
      6 N          13.4436   39.3295   10.0905 N.ar    1  UNL1       -0.2348
      7 N          14.3344   40.9183    8.5994 N.ar    1  UNL1       -0.2159
      8 C          11.9369   40.3755    8.4219 C.3     1  UNL1        0.0785
      9 C          10.8419   40.4771    9.4857 C.3     1  UNL1        0.0110
     10 C           9.4758   40.6583    8.8273 C.3     1  UNL1        0.0220
     11 C           9.1933   39.4925    7.8847 C.3     1  UNL1        0.0935
     12 C          10.0576   39.3938    5.5147 C.2     1  UNL1        0.2556
     13 C          11.6462   39.2254    7.4579 C.3     1  UNL1        0.1009
     14 N          10.2915   39.3618    6.9303 N.am    1  UNL1       -0.2771
     15 O          11.0218   39.2836    4.7109 O.2     1  UNL1       -0.2722
     16 C           8.6752   39.5219    4.9674 C.3     1  UNL1        0.2232
     17 O           8.5819   38.8254    3.7629 O.3     1  UNL1       -0.3737
     18 H           9.2146   39.1938    3.1266 H       1  UNL1        0.2110
     19 N          16.6507   41.5699    8.6264 N.pl3   1  UNL1       -0.2781
     20 H          17.5554   41.3406    8.9396 H       1  UNL1        0.1555
     21 C          16.5476   42.6516    7.6929 C.ar    1  UNL1        0.1646
     22 C          16.8968   44.6137    6.2488 C.ar    1  UNL1        0.0588
     23 C          15.6408   44.0122    6.1573 C.ar    1  UNL1        0.1079
     24 N          15.4521   42.9277    6.9575 N.ar    1  UNL1       -0.2224
     25 S          17.7831   43.7343    7.3809 S.2     1  UNL1       -0.0508
@<TRIPOS>BOND
     1     1     7   ar
     2     8     1    1
     3     8     9    1
     4     9    10    1
     5    10    11    1
     6    11    14    1
     7    16    12    1
     8    16    17    1
     9    13    14    1
    10    13     8    1
    11     2     6   ar
    12     3     2    1
    13     4     5   ar
    14     5    19    1
    15    21    25   ar
    16    22    25   ar
    17    23    24   ar
    18    14    12   am
    19    19    21    1
    20     1     6   ar
    21    12    15    2
    22     2     4   ar
    23     5     7   ar
    24    21    24   ar
    25    22    23   ar
    26    19    20    1
    27    17    18    1
@<TRIPOS>MOLECULE
Molport-052-050-742 MCULE-8882121640
 25 27 0 0 0
SMALL
GASTEIGER

@<TRIPOS>ATOM
      1 C          11.3791   41.3169    9.9755 C.ar    1  UNL1        0.1414
      2 C          13.2553   40.0223   10.6022 C.ar    1  UNL1        0.0635
      3 C          13.9387   39.1509   11.5927 C.3     1  UNL1        0.0522
      4 C          13.8818   40.3318    9.3969 C.ar    1  UNL1        0.0492
      5 C          13.2136   41.1546    8.4837 C.ar    1  UNL1        0.1361
      6 N          12.0200   40.5171   10.8710 N.ar    1  UNL1       -0.2348
      7 N          11.9777   41.6272    8.7955 N.ar    1  UNL1       -0.2159
      8 C          10.0205   41.8572   10.2756 C.3     1  UNL1        0.0785
      9 C           9.5594   41.4177   11.6668 C.3     1  UNL1        0.0110
     10 C           8.1701   41.9761   11.9676 C.3     1  UNL1        0.0220
     11 C           7.1791   41.5062   10.9072 C.3     1  UNL1        0.0935
     12 C           6.8972   42.6549    8.6768 C.2     1  UNL1        0.2556
     13 C           9.0183   41.4123    9.2105 C.3     1  UNL1        0.1009
     14 N           7.6798   41.8625    9.5820 N.am    1  UNL1       -0.2771
     15 O           7.3525   42.9534    7.5403 O.2     1  UNL1       -0.2722
     16 C           5.5243   43.1097    9.0443 C.3     1  UNL1        0.2232
     17 O           5.4902   44.5028    9.0954 O.3     1  UNL1       -0.3737
     18 H           6.1217   44.8175    9.7611 H       1  UNL1        0.2110
     19 N          13.7969   41.5144    7.2246 N.pl3   1  UNL1       -0.2781
     20 H          13.6017   40.9235    6.4617 H       1  UNL1        0.1555
     21 C          14.6350   42.6466    6.9636 C.ar    1  UNL1        0.1646
     22 C          15.6522   44.7474    6.1833 C.ar    1  UNL1        0.0588
     23 C          16.4185   44.0020    7.0803 C.ar    1  UNL1        0.1079
     24 N          15.8522   42.8411    7.5092 N.ar    1  UNL1       -0.2224
     25 S          14.2177   43.8979    5.9359 S.2     1  UNL1       -0.0508
@<TRIPOS>BOND
     1     1     7   ar
     2     8     1    1
     3     8     9    1
     4     9    10    1
     5    10    11    1
     6    11    14    1
     7    16    12    1
     8    16    17    1
     9    13    14    1
    10    13     8    1
    11     2     6   ar
    12     3     2    1
    13     4     5   ar
    14     5    19    1
    15    21    25   ar
    16    22    25   ar
    17    23    24   ar
    18    14    12   am
    19    19    21    1
    20     1     6   ar
    21    12    15    2
    22     2     4   ar
    23     5     7   ar
    24    21    24   ar
    25    22    23   ar
    26    19    20    1
    27    17    18    1
@<TRIPOS>MOLECULE
Molport-052-050-742 MCULE-8882121640
 25 27 0 0 0
SMALL
GASTEIGER

@<TRIPOS>ATOM
      1 C          13.9831   41.2100    7.8760 C.ar    1  UNL1        0.1414
      2 C          14.7213   43.1057    6.6719 C.ar    1  UNL1        0.0635
      3 C          15.7813   44.1040    6.3761 C.3     1  UNL1        0.0522
      4 C          13.5000   43.1676    6.0044 C.ar    1  UNL1        0.0492
      5 C          12.5211   42.2139    6.3037 C.ar    1  UNL1        0.1361
      6 N          14.9425   42.1327    7.5923 N.ar    1  UNL1       -0.2348
      7 N          12.7869   41.2576    7.2327 N.ar    1  UNL1       -0.2159
      8 C          14.2320   40.1415    8.8880 C.3     1  UNL1        0.0785
      9 C          13.2056   40.2199   10.0201 C.3     1  UNL1        0.0110
     10 C          13.4650   39.1226   11.0502 C.3     1  UNL1        0.0220
     11 C          14.8794   39.2542   11.6064 C.3     1  UNL1        0.0935
     12 C          16.9126   38.3128   10.4429 C.2     1  UNL1        0.2556
     13 C          15.6531   40.2463    9.4413 C.3     1  UNL1        0.1009
     14 N          15.8369   39.2610   10.5032 N.am    1  UNL1       -0.2771
     15 O          17.7236   38.3356    9.4786 O.2     1  UNL1       -0.2722
     16 C          17.1141   37.3098   11.5293 C.3     1  UNL1        0.2232
     17 O          15.8851   36.9901   12.1054 O.3     1  UNL1       -0.3737
     18 H          15.4845   37.7911   12.4780 H       1  UNL1        0.2110
     19 N          11.2419   42.2162    5.6565 N.pl3   1  UNL1       -0.2781
     20 H          10.9029   43.0881    5.3500 H       1  UNL1        0.1555
     21 C          10.4069   41.0784    5.4105 C.ar    1  UNL1        0.1646
     22 C           9.3373   39.0253    4.5751 C.ar    1  UNL1        0.0588
     23 C           8.7112   39.6322    5.6648 C.ar    1  UNL1        0.1079
     24 N           9.3060   40.7671    6.1234 N.ar    1  UNL1       -0.2224
     25 S          10.6825   39.9659    4.1928 S.2     1  UNL1       -0.0508
@<TRIPOS>BOND
     1     1     7   ar
     2     8     1    1
     3     8     9    1
     4     9    10    1
     5    10    11    1
     6    11    14    1
     7    16    12    1
     8    16    17    1
     9    13    14    1
    10    13     8    1
    11     2     6   ar
    12     3     2    1
    13     4     5   ar
    14     5    19    1
    15    21    25   ar
    16    22    25   ar
    17    23    24   ar
    18    14    12   am
    19    19    21    1
    20     1     6   ar
    21    12    15    2
    22     2     4   ar
    23     5     7   ar
    24    21    24   ar
    25    22    23   ar
    26    19    20    1
    27    17    18    1
