@<TRIPOS>MOLECULE
MolPort-002-552-480 CSSS00121638413 LN00488255 MCULE-8958344395 PubChem-3453859
 27 30 0 0 0
SMALL
GASTEIGER

@<TRIPOS>ATOM
      1 C          16.5151   32.8565    3.9661 C.3     1  UNL1        0.1935
      2 C          14.2220   31.5217    4.0095 C.3     1  UNL1        0.1451
      3 C          14.6716   32.0831    5.3006 C.2     1  UNL1        0.2415
      4 C          16.6497   34.2660    3.4925 C.ar    1  UNL1        0.0256
      5 C          15.6523   35.2283    3.3242 C.ar    1  UNL1       -0.0002
      6 C          16.0281   36.5012    2.8663 C.ar    1  UNL1       -0.0001
      7 C          17.3782   36.7897    2.5887 C.ar    1  UNL1        0.0013
      8 C          18.3671   35.8084    2.7661 C.ar    1  UNL1        0.0144
      9 C          17.9732   34.5505    3.2184 C.ar    1  UNL1        0.0491
     10 C          17.9571   32.4324    3.9311 C.2     1  UNL1        0.2564
     11 S          15.5224   31.8711    2.7853 S.3     1  UNL1       -0.1007
     12 O          13.9515   31.9871    6.3296 O.2     1  UNL1       -0.2735
     13 O          18.3640   31.2903    4.2705 O.2     1  UNL1       -0.2717
     14 N          15.9268   32.7637    5.3071 N.am    1  UNL1       -0.2415
     15 N          18.8398   33.4548    3.4698 N.am    1  UNL1       -0.2818
     16 H          19.8164   33.4106    3.3537 H       1  UNL1        0.1549
     17 C          16.5490   33.2774    6.5117 C.ar    1  UNL1        0.0553
     18 C          16.1359   34.4967    7.0715 C.ar    1  UNL1        0.0162
     19 C          16.7440   34.9985    8.2246 C.ar    1  UNL1        0.0159
     20 C          17.7804   34.2929    8.8411 C.ar    1  UNL1        0.0504
     21 C          18.2034   33.0769    8.2874 C.ar    1  UNL1        0.0159
     22 C          17.5943   32.5763    7.1341 C.ar    1  UNL1        0.0162
     23 C          19.0954   34.1174   11.0340 C.2     1  UNL1        0.2266
     24 C          19.6524   34.8546   12.1976 C.3     1  UNL1        0.0949
     25 O          19.2614   32.8716   10.9558 O.2     1  UNL1       -0.2748
     26 N          18.3802   34.8394   10.0235 N.am    1  UNL1       -0.2839
     27 H          18.2915   35.8111   10.1547 H       1  UNL1        0.1549
@<TRIPOS>BOND
     1     1    11    1
     2     1     4    1
     3     1    14    1
     4     1    10    1
     5     2    11    1
     6     2     3    1
     7     3    14   am
     8    18    19   ar
     9    20    21   ar
    10    20    26    1
    11    22    17   ar
    12    24    23    1
    13     5     6   ar
    14     7     8   ar
    15     9    15    1
    16     9     4   ar
    17    14    17    1
    18    26    23   am
    19    15    10   am
    20     3    12    2
    21    17    18   ar
    22    19    20   ar
    23    21    22   ar
    24    23    25    2
    25     4     5   ar
    26     6     7   ar
    27     8     9   ar
    28    10    13    2
    29    26    27    1
    30    15    16    1
@<TRIPOS>MOLECULE
MolPort-002-552-480 CSSS00121638413 LN00488255 MCULE-8958344395 PubChem-3453859
 27 30 0 0 0
SMALL
GASTEIGER

@<TRIPOS>ATOM
      1 C          17.7465   33.5493    5.2621 C.3     1  UNL1        0.1935
      2 C          16.3411   31.3021    5.1335 C.3     1  UNL1        0.1451
      3 C          15.8768   32.3035    6.1163 C.2     1  UNL1        0.2415
      4 C          17.6064   34.6761    4.2925 C.ar    1  UNL1        0.0256
      5 C          16.5612   34.9376    3.4046 C.ar    1  UNL1       -0.0002
      6 C          16.6535   36.0751    2.5868 C.ar    1  UNL1       -0.0001
      7 C          17.7740   36.9240    2.6690 C.ar    1  UNL1        0.0013
      8 C          18.8144   36.6445    3.5699 C.ar    1  UNL1        0.0144
      9 C          18.7053   35.5092    4.3706 C.ar    1  UNL1        0.0491
     10 C          19.0646   33.9093    5.8892 C.2     1  UNL1        0.2564
     11 S          17.8655   31.9499    4.3797 S.3     1  UNL1       -0.1007
     12 O          14.8273   32.1099    6.7852 O.2     1  UNL1       -0.2735
     13 O          19.6136   33.2438    6.8062 O.2     1  UNL1       -0.2717
     14 N          16.6483   33.4992    6.2340 N.am    1  UNL1       -0.2415
     15 N          19.6504   35.0911    5.3437 N.am    1  UNL1       -0.2818
     16 H          20.5057   35.5149    5.5848 H       1  UNL1        0.1549
     17 C          16.3812   34.5265    7.2216 C.ar    1  UNL1        0.0553
     18 C          17.0799   34.5538    8.4388 C.ar    1  UNL1        0.0162
     19 C          16.8137   35.5355    9.3962 C.ar    1  UNL1        0.0159
     20 C          15.8406   36.5094    9.1579 C.ar    1  UNL1        0.0504
     21 C          15.1341   36.4880    7.9478 C.ar    1  UNL1        0.0159
     22 C          15.4015   35.5056    6.9913 C.ar    1  UNL1        0.0162
     23 C          14.5100   37.5229   11.0999 C.2     1  UNL1        0.2266
     24 C          14.4156   38.6372   12.0781 C.3     1  UNL1        0.0949
     25 O          13.6355   36.6169   11.1101 O.2     1  UNL1       -0.2748
     26 N          15.5953   37.5013   10.1641 N.am    1  UNL1       -0.2839
     27 H          16.2389   38.2443   10.2176 H       1  UNL1        0.1549
@<TRIPOS>BOND
     1     1    11    1
     2     1     4    1
     3     1    14    1
     4     1    10    1
     5     2    11    1
     6     2     3    1
     7     3    14   am
     8    18    19   ar
     9    20    21   ar
    10    20    26    1
    11    22    17   ar
    12    24    23    1
    13     5     6   ar
    14     7     8   ar
    15     9    15    1
    16     9     4   ar
    17    14    17    1
    18    26    23   am
    19    15    10   am
    20     3    12    2
    21    17    18   ar
    22    19    20   ar
    23    21    22   ar
    24    23    25    2
    25     4     5   ar
    26     6     7   ar
    27     8     9   ar
    28    10    13    2
    29    26    27    1
    30    15    16    1
@<TRIPOS>MOLECULE
MolPort-002-552-480 CSSS00121638413 LN00488255 MCULE-8958344395 PubChem-3453859
 27 30 0 0 0
SMALL
GASTEIGER

@<TRIPOS>ATOM
      1 C          13.8188   37.5905   10.1070 C.3     1  UNL1        0.1935
      2 C          11.2583   36.9803    9.7707 C.3     1  UNL1        0.1451
      3 C          11.7383   38.1839    9.0598 C.2     1  UNL1        0.2415
      4 C          14.9377   36.9167    9.3836 C.ar    1  UNL1        0.0256
      5 C          14.8854   36.1463    8.2205 C.ar    1  UNL1       -0.0002
      6 C          16.0853   35.6156    7.7208 C.ar    1  UNL1       -0.0001
      7 C          17.3041   35.8612    8.3821 C.ar    1  UNL1        0.0013
      8 C          17.3360   36.6403    9.5501 C.ar    1  UNL1        0.0144
      9 C          16.1340   37.1553   10.0315 C.ar    1  UNL1        0.0491
     10 C          14.5874   38.2451   11.2210 C.2     1  UNL1        0.2564
     11 S          12.6433   36.3546   10.7716 S.3     1  UNL1       -0.1007
     12 O          10.9764   38.8196    8.2840 O.2     1  UNL1       -0.2735
     13 O          14.0625   38.9639   12.1116 O.2     1  UNL1       -0.2717
     14 N          13.1013   38.5556    9.2664 N.am    1  UNL1       -0.2415
     15 N          15.9883   37.9748   11.1814 N.am    1  UNL1       -0.2818
     16 H          16.6868   38.2831   11.8030 H       1  UNL1        0.1549
     17 C          13.6894   39.7641    8.7224 C.ar    1  UNL1        0.0553
     18 C          13.0108   40.5228    7.7557 C.ar    1  UNL1        0.0162
     19 C          13.5827   41.6799    7.2216 C.ar    1  UNL1        0.0159
     20 C          14.8470   42.1016    7.6409 C.ar    1  UNL1        0.0504
     21 C          15.5348   41.3485    8.6022 C.ar    1  UNL1        0.0159
     22 C          14.9615   40.1915    9.1354 C.ar    1  UNL1        0.0162
     23 C          14.7334   44.2220    6.2057 C.2     1  UNL1        0.2266
     24 C          15.4704   45.4121    5.7077 C.3     1  UNL1        0.0949
     25 O          13.5351   44.0488    5.8599 O.2     1  UNL1       -0.2748
     26 N          15.4016   43.2946    7.0703 N.am    1  UNL1       -0.2839
     27 H          16.3381   43.4976    7.2958 H       1  UNL1        0.1549
@<TRIPOS>BOND
     1     1    11    1
     2     1     4    1
     3     1    14    1
     4     1    10    1
     5     2    11    1
     6     2     3    1
     7     3    14   am
     8    18    19   ar
     9    20    21   ar
    10    20    26    1
    11    22    17   ar
    12    24    23    1
    13     5     6   ar
    14     7     8   ar
    15     9    15    1
    16     9     4   ar
    17    14    17    1
    18    26    23   am
    19    15    10   am
    20     3    12    2
    21    17    18   ar
    22    19    20   ar
    23    21    22   ar
    24    23    25    2
    25     4     5   ar
    26     6     7   ar
    27     8     9   ar
    28    10    13    2
    29    26    27    1
    30    15    16    1
@<TRIPOS>MOLECULE
MolPort-002-552-480 CSSS00121638413 LN00488255 MCULE-8958344395 PubChem-3453859
 27 30 0 0 0
SMALL
GASTEIGER

@<TRIPOS>ATOM
      1 C           7.4569   42.6379    8.8397 C.3     1  UNL1        0.1935
      2 C           7.3275   43.6303    6.3821 C.3     1  UNL1        0.1451
      3 C           8.0703   42.3614    6.5321 C.2     1  UNL1        0.2415
      4 C           6.3492   41.8769    9.4902 C.ar    1  UNL1        0.0256
      5 C           5.2474   41.2604    8.8942 C.ar    1  UNL1       -0.0002
      6 C           4.3318   40.5920    9.7226 C.ar    1  UNL1       -0.0001
      7 C           4.5298   40.5491   11.1161 C.ar    1  UNL1        0.0013
      8 C           5.6455   41.1743   11.6964 C.ar    1  UNL1        0.0144
      9 C           6.5408   41.8350   10.8574 C.ar    1  UNL1        0.0491
     10 C           8.2833   42.9771   10.0489 C.2     1  UNL1        0.2564
     11 S           6.8164   44.1584    8.0468 S.3     1  UNL1       -0.1007
     12 O           8.5373   41.7663    5.5251 O.2     1  UNL1       -0.2735
     13 O           9.3646   43.6207   10.0053 O.2     1  UNL1       -0.2717
     14 N           8.1917   41.8364    7.8544 N.am    1  UNL1       -0.2415
     15 N           7.7247   42.4991   11.2723 N.am    1  UNL1       -0.2818
     16 H           8.0765   42.6048   12.1857 H       1  UNL1        0.1549
     17 C           8.9749   40.6595    8.1762 C.ar    1  UNL1        0.0553
     18 C          10.0246   40.7255    9.1059 C.ar    1  UNL1        0.0162
     19 C          10.7880   39.5949    9.4065 C.ar    1  UNL1        0.0159
     20 C          10.5196   38.3745    8.7814 C.ar    1  UNL1        0.0504
     21 C           9.4768   38.2992    7.8481 C.ar    1  UNL1        0.0159
     22 C           8.7143   39.4308    7.5485 C.ar    1  UNL1        0.0162
     23 C          12.5275   37.2351    9.8945 C.2     1  UNL1        0.2266
     24 C          13.2330   35.9510   10.1415 C.3     1  UNL1        0.0949
     25 O          12.9985   38.3001   10.3735 O.2     1  UNL1       -0.2748
     26 N          11.3244   37.2356    9.1157 N.am    1  UNL1       -0.2839
     27 H          11.0188   36.3640    8.7750 H       1  UNL1        0.1549
@<TRIPOS>BOND
     1     1    11    1
     2     1     4    1
     3     1    14    1
     4     1    10    1
     5     2    11    1
     6     2     3    1
     7     3    14   am
     8    18    19   ar
     9    20    21   ar
    10    20    26    1
    11    22    17   ar
    12    24    23    1
    13     5     6   ar
    14     7     8   ar
    15     9    15    1
    16     9     4   ar
    17    14    17    1
    18    26    23   am
    19    15    10   am
    20     3    12    2
    21    17    18   ar
    22    19    20   ar
    23    21    22   ar
    24    23    25    2
    25     4     5   ar
    26     6     7   ar
    27     8     9   ar
    28    10    13    2
    29    26    27    1
    30    15    16    1
@<TRIPOS>MOLECULE
MolPort-002-552-480 CSSS00121638413 LN00488255 MCULE-8958344395 PubChem-3453859
 27 30 0 0 0
SMALL
GASTEIGER

@<TRIPOS>ATOM
      1 C           8.4038   42.3625    8.9831 C.3     1  UNL1        0.1935
      2 C          10.1841   42.0219   10.9212 C.3     1  UNL1        0.1451
      3 C           8.7683   41.8262   11.2976 C.2     1  UNL1        0.2415
      4 C           8.0990   41.3365    7.9422 C.ar    1  UNL1        0.0256
      5 C           8.3806   39.9691    7.9568 C.ar    1  UNL1       -0.0002
      6 C           7.9867   39.1982    6.8515 C.ar    1  UNL1       -0.0001
      7 C           7.3244   39.7977    5.7630 C.ar    1  UNL1        0.0013
      8 C           7.0488   41.1748    5.7680 C.ar    1  UNL1        0.0144
      9 C           7.4506   41.9229    6.8729 C.ar    1  UNL1        0.0491
     10 C           7.8049   43.5782    8.3321 C.2     1  UNL1        0.2564
     11 S          10.2125   42.5611    9.1834 S.3     1  UNL1       -0.1007
     12 O           8.4577   41.4437   12.4568 O.2     1  UNL1       -0.2735
     13 O           7.7987   44.7249    8.8520 O.2     1  UNL1       -0.2717
     14 N           7.7922   42.0518   10.2802 N.am    1  UNL1       -0.2415
     15 N           7.2354   43.3148    7.0501 N.am    1  UNL1       -0.2818
     16 H           6.7978   43.9473    6.4355 H       1  UNL1        0.1549
     17 C           6.3634   42.0008   10.5208 C.ar    1  UNL1        0.0553
     18 C           5.4986   42.9288    9.9196 C.ar    1  UNL1        0.0162
     19 C           4.1234   42.8883   10.1614 C.ar    1  UNL1        0.0159
     20 C           3.5839   41.9203   11.0123 C.ar    1  UNL1        0.0504
     21 C           4.4393   40.9921   11.6213 C.ar    1  UNL1        0.0159
     22 C           5.8144   41.0339   11.3784 C.ar    1  UNL1        0.0162
     23 C           1.4895   42.2466   12.4531 C.2     1  UNL1        0.2266
     24 C           0.0060   42.1789   12.5015 C.3     1  UNL1        0.0949
     25 O           2.1252   42.5987   13.4815 O.2     1  UNL1       -0.2748
     26 N           2.1674   41.9098   11.2362 N.am    1  UNL1       -0.2839
     27 H           1.6023   41.6436   10.4753 H       1  UNL1        0.1549
@<TRIPOS>BOND
     1     1    11    1
     2     1     4    1
     3     1    14    1
     4     1    10    1
     5     2    11    1
     6     2     3    1
     7     3    14   am
     8    18    19   ar
     9    20    21   ar
    10    20    26    1
    11    22    17   ar
    12    24    23    1
    13     5     6   ar
    14     7     8   ar
    15     9    15    1
    16     9     4   ar
    17    14    17    1
    18    26    23   am
    19    15    10   am
    20     3    12    2
    21    17    18   ar
    22    19    20   ar
    23    21    22   ar
    24    23    25    2
    25     4     5   ar
    26     6     7   ar
    27     8     9   ar
    28    10    13    2
    29    26    27    1
    30    15    16    1
@<TRIPOS>MOLECULE
MolPort-002-552-480 CSSS00121638413 LN00488255 MCULE-8958344395 PubChem-3453859
 27 30 0 0 0
SMALL
GASTEIGER

@<TRIPOS>ATOM
      1 C           9.9054   40.7062    9.2998 C.3     1  UNL1        0.1935
      2 C           8.9769   42.5276   10.9916 C.3     1  UNL1        0.1451
      3 C          10.2208   42.8802   10.2755 C.2     1  UNL1        0.2415
      4 C           9.3661   40.4959    7.9235 C.ar    1  UNL1        0.0256
      5 C           8.5790   41.3553    7.1547 C.ar    1  UNL1       -0.0002
      6 C           8.1948   40.9343    5.8716 C.ar    1  UNL1       -0.0001
      7 C           8.5993   39.6775    5.3821 C.ar    1  UNL1        0.0013
      8 C           9.3924   38.8280    6.1705 C.ar    1  UNL1        0.0144
      9 C           9.7606   39.2629    7.4422 C.ar    1  UNL1        0.0491
     10 C          10.6661   39.4219    9.4792 C.2     1  UNL1        0.2564
     11 S           8.5423   40.8258   10.5157 S.3     1  UNL1       -0.1007
     12 O          10.7460   44.0160   10.4190 O.2     1  UNL1       -0.2735
     13 O          11.3263   39.1324   10.5115 O.2     1  UNL1       -0.2717
     14 N          10.7621   41.8936    9.3966 N.am    1  UNL1       -0.2415
     15 N          10.5715   38.5432    8.3583 N.am    1  UNL1       -0.2818
     16 H          10.9729   37.6511    8.2472 H       1  UNL1        0.1549
     17 C          12.0266   42.0497    8.7047 C.ar    1  UNL1        0.0553
     18 C          12.1288   42.8663    7.5675 C.ar    1  UNL1        0.0162
     19 C          13.3438   43.0067    6.8928 C.ar    1  UNL1        0.0159
     20 C          14.4823   42.3310    7.3394 C.ar    1  UNL1        0.0504
     21 C          14.3896   41.5095    8.4711 C.ar    1  UNL1        0.0159
     22 C          13.1738   41.3701    9.1448 C.ar    1  UNL1        0.0162
     23 C          16.5948   43.6270    6.6864 C.2     1  UNL1        0.2266
     24 C          17.8337   43.6283    5.8661 C.3     1  UNL1        0.0949
     25 O          16.3422   44.6154    7.4245 O.2     1  UNL1       -0.2748
     26 N          15.7119   42.4999    6.6211 N.am    1  UNL1       -0.2839
     27 H          15.9771   41.7658    6.0212 H       1  UNL1        0.1549
@<TRIPOS>BOND
     1     1    11    1
     2     1     4    1
     3     1    14    1
     4     1    10    1
     5     2    11    1
     6     2     3    1
     7     3    14   am
     8    18    19   ar
     9    20    21   ar
    10    20    26    1
    11    22    17   ar
    12    24    23    1
    13     5     6   ar
    14     7     8   ar
    15     9    15    1
    16     9     4   ar
    17    14    17    1
    18    26    23   am
    19    15    10   am
    20     3    12    2
    21    17    18   ar
    22    19    20   ar
    23    21    22   ar
    24    23    25    2
    25     4     5   ar
    26     6     7   ar
    27     8     9   ar
    28    10    13    2
    29    26    27    1
    30    15    16    1
@<TRIPOS>MOLECULE
MolPort-002-552-480 CSSS00121638413 LN00488255 MCULE-8958344395 PubChem-3453859
 27 30 0 0 0
SMALL
GASTEIGER

@<TRIPOS>ATOM
      1 C           7.9764   41.5003    7.6313 C.3     1  UNL1        0.1935
      2 C           7.2292   39.0664    6.8833 C.3     1  UNL1        0.1451
      3 C           8.6721   39.3662    6.7716 C.2     1  UNL1        0.2415
      4 C           8.1673   41.9128    9.0535 C.ar    1  UNL1        0.0256
      5 C           8.3352   41.1059   10.1805 C.ar    1  UNL1       -0.0002
      6 C           8.5042   41.7316   11.4259 C.ar    1  UNL1       -0.0001
      7 C           8.5046   43.1363   11.5246 C.ar    1  UNL1        0.0013
      8 C           8.3358   43.9306   10.3787 C.ar    1  UNL1        0.0144
      9 C           8.1665   43.2905    9.1526 C.ar    1  UNL1        0.0491
     10 C           7.8979   42.8519    6.9777 C.2     1  UNL1        0.2564
     11 S           6.4002   40.5916    7.4292 S.3     1  UNL1       -0.1007
     12 O           9.4884   38.4760    6.4142 O.2     1  UNL1       -0.2735
     13 O           7.7516   43.0283    5.7396 O.2     1  UNL1       -0.2717
     14 N           9.0868   40.6862    7.1242 N.am    1  UNL1       -0.2415
     15 N           8.0039   43.9367    7.8992 N.am    1  UNL1       -0.2818
     16 H           7.9718   44.9024    7.7107 H       1  UNL1        0.1549
     17 C          10.4477   41.1622    6.9703 C.ar    1  UNL1        0.0553
     18 C          11.2603   41.3940    8.0912 C.ar    1  UNL1        0.0162
     19 C          12.5670   41.8652    7.9441 C.ar    1  UNL1        0.0159
     20 C          13.0882   42.1174    6.6726 C.ar    1  UNL1        0.0504
     21 C          12.2834   41.8937    5.5472 C.ar    1  UNL1        0.0159
     22 C          10.9768   41.4225    5.6960 C.ar    1  UNL1        0.0162
     23 C          14.8485   43.8722    6.0472 C.2     1  UNL1        0.2266
     24 C          16.2963   44.2037    6.0082 C.3     1  UNL1        0.0949
     25 O          14.0110   44.7142    5.6286 O.2     1  UNL1       -0.2748
     26 N          14.4340   42.6002    6.5610 N.am    1  UNL1       -0.2839
     27 H          15.1468   41.9952    6.8694 H       1  UNL1        0.1549
@<TRIPOS>BOND
     1     1    11    1
     2     1     4    1
     3     1    14    1
     4     1    10    1
     5     2    11    1
     6     2     3    1
     7     3    14   am
     8    18    19   ar
     9    20    21   ar
    10    20    26    1
    11    22    17   ar
    12    24    23    1
    13     5     6   ar
    14     7     8   ar
    15     9    15    1
    16     9     4   ar
    17    14    17    1
    18    26    23   am
    19    15    10   am
    20     3    12    2
    21    17    18   ar
    22    19    20   ar
    23    21    22   ar
    24    23    25    2
    25     4     5   ar
    26     6     7   ar
    27     8     9   ar
    28    10    13    2
    29    26    27    1
    30    15    16    1
@<TRIPOS>MOLECULE
MolPort-002-552-480 CSSS00121638413 LN00488255 MCULE-8958344395 PubChem-3453859
 27 30 0 0 0
SMALL
GASTEIGER

@<TRIPOS>ATOM
      1 C           8.5345   43.2305    9.1465 C.3     1  UNL1        0.1935
      2 C           7.1670   43.9604    6.9927 C.3     1  UNL1        0.1451
      3 C           8.0782   42.8090    6.8245 C.2     1  UNL1        0.2415
      4 C           7.9654   42.4092   10.2559 C.ar    1  UNL1        0.0256
      5 C           6.8194   41.6118   10.2512 C.ar    1  UNL1       -0.0002
      6 C           6.4857   40.9218   11.4276 C.ar    1  UNL1       -0.0001
      7 C           7.2931   41.0366   12.5755 C.ar    1  UNL1        0.0013
      8 C           8.4430   41.8427   12.5596 C.ar    1  UNL1        0.0144
      9 C           8.7553   42.5216   11.3834 C.ar    1  UNL1        0.0491
     10 C           9.7553   43.7800    9.8306 C.2     1  UNL1        0.2564
     11 S           7.3866   44.5811    8.6891 S.3     1  UNL1       -0.1007
     12 O           8.1256   42.1798    5.7344 O.2     1  UNL1       -0.2735
     13 O          10.5917   44.5403    9.2758 O.2     1  UNL1       -0.2717
     14 N           8.8583   42.4314    7.9592 N.am    1  UNL1       -0.2415
     15 N           9.8851   43.3584   11.1881 N.am    1  UNL1       -0.2818
     16 H          10.5899   43.5922   11.8345 H       1  UNL1        0.1549
     17 C           9.8686   41.3922    7.9221 C.ar    1  UNL1        0.0553
     18 C           9.5654   40.0790    8.3147 C.ar    1  UNL1        0.0162
     19 C          10.5418   39.0804    8.2918 C.ar    1  UNL1        0.0159
     20 C          11.8436   39.3744    7.8782 C.ar    1  UNL1        0.0504
     21 C          12.1579   40.6835    7.4888 C.ar    1  UNL1        0.0159
     22 C          11.1802   41.6811    7.5123 C.ar    1  UNL1        0.0162
     23 C          13.3462   37.6315    9.0066 C.2     1  UNL1        0.2266
     24 C          14.3571   36.5617    8.8037 C.3     1  UNL1        0.0949
     25 O          12.9703   37.9119   10.1753 O.2     1  UNL1       -0.2748
     26 N          12.8189   38.3232    7.8675 N.am    1  UNL1       -0.2839
     27 H          13.1618   38.0481    6.9866 H       1  UNL1        0.1549
@<TRIPOS>BOND
     1     1    11    1
     2     1     4    1
     3     1    14    1
     4     1    10    1
     5     2    11    1
     6     2     3    1
     7     3    14   am
     8    18    19   ar
     9    20    21   ar
    10    20    26    1
    11    22    17   ar
    12    24    23    1
    13     5     6   ar
    14     7     8   ar
    15     9    15    1
    16     9     4   ar
    17    14    17    1
    18    26    23   am
    19    15    10   am
    20     3    12    2
    21    17    18   ar
    22    19    20   ar
    23    21    22   ar
    24    23    25    2
    25     4     5   ar
    26     6     7   ar
    27     8     9   ar
    28    10    13    2
    29    26    27    1
    30    15    16    1
@<TRIPOS>MOLECULE
MolPort-002-552-480 CSSS00121638413 LN00488255 MCULE-8958344395 PubChem-3453859
 27 30 0 0 0
SMALL
GASTEIGER

@<TRIPOS>ATOM
      1 C          14.3490   37.5380    9.4747 C.3     1  UNL1        0.1935
      2 C          15.7627   39.6002   10.3638 C.3     1  UNL1        0.1451
      3 C          14.4737   39.9260    9.7183 C.2     1  UNL1        0.2415
      4 C          13.5056   36.6681   10.3471 C.ar    1  UNL1        0.0256
      5 C          13.0247   36.9264   11.6321 C.ar    1  UNL1       -0.0002
      6 C          12.2373   35.9456   12.2561 C.ar    1  UNL1       -0.0001
      7 C          11.9450   34.7377   11.5940 C.ar    1  UNL1        0.0013
      8 C          12.4369   34.4974   10.3008 C.ar    1  UNL1        0.0144
      9 C          13.2190   35.4820    9.7000 C.ar    1  UNL1        0.0491
     10 C          14.4537   36.6612    8.2579 C.2     1  UNL1        0.2564
     11 S          15.9974   37.8009   10.2262 S.3     1  UNL1       -0.1007
     12 O          14.0576   41.1141    9.6758 O.2     1  UNL1       -0.2735
     13 O          15.0747   36.9810    7.2104 O.2     1  UNL1       -0.2717
     14 N          13.7210   38.8334    9.1907 N.am    1  UNL1       -0.2415
     15 N          13.7772   35.4120    8.3968 N.am    1  UNL1       -0.2818
     16 H          13.7132   34.6774    7.7445 H       1  UNL1        0.1549
     17 C          12.4915   39.0006    8.4408 C.ar    1  UNL1        0.0553
     18 C          12.5153   39.1674    7.0472 C.ar    1  UNL1        0.0162
     19 C          11.3319   39.3418    6.3258 C.ar    1  UNL1        0.0159
     20 C          10.0992   39.3559    6.9833 C.ar    1  UNL1        0.0504
     21 C          10.0649   39.1949    8.3751 C.ar    1  UNL1        0.0159
     22 C          11.2493   39.0207    9.0951 C.ar    1  UNL1        0.0162
     23 C           7.6444   40.0278    6.6808 C.2     1  UNL1        0.2266
     24 C           6.5101   40.1503    5.7289 C.3     1  UNL1        0.0949
     25 O           7.4782   40.3574    7.8847 O.2     1  UNL1       -0.2748
     26 N           8.9056   39.5369    6.2093 N.am    1  UNL1       -0.2839
     27 H           8.9580   39.2994    5.2553 H       1  UNL1        0.1549
@<TRIPOS>BOND
     1     1    11    1
     2     1     4    1
     3     1    14    1
     4     1    10    1
     5     2    11    1
     6     2     3    1
     7     3    14   am
     8    18    19   ar
     9    20    21   ar
    10    20    26    1
    11    22    17   ar
    12    24    23    1
    13     5     6   ar
    14     7     8   ar
    15     9    15    1
    16     9     4   ar
    17    14    17    1
    18    26    23   am
    19    15    10   am
    20     3    12    2
    21    17    18   ar
    22    19    20   ar
    23    21    22   ar
    24    23    25    2
    25     4     5   ar
    26     6     7   ar
    27     8     9   ar
    28    10    13    2
    29    26    27    1
    30    15    16    1
@<TRIPOS>MOLECULE
MolPort-002-552-480 CSSS00121638413 LN00488255 MCULE-8958344395 PubChem-3453859
 27 30 0 0 0
SMALL
GASTEIGER

@<TRIPOS>ATOM
      1 C          15.1181   36.4998    9.6714 C.3     1  UNL1        0.1935
      2 C          15.8936   35.1973    7.4933 C.3     1  UNL1        0.1451
      3 C          14.9060   36.2774    7.2874 C.2     1  UNL1        0.2415
      4 C          15.9170   37.5778   10.3262 C.ar    1  UNL1        0.0256
      5 C          16.9714   38.3251    9.7977 C.ar    1  UNL1       -0.0002
      6 C          17.5697   39.2985   10.6136 C.ar    1  UNL1       -0.0001
      7 C          17.1099   39.5087   11.9279 C.ar    1  UNL1        0.0013
      8 C          16.0468   38.7477   12.4405 C.ar    1  UNL1        0.0144
      9 C          15.4685   37.7845   11.6160 C.ar    1  UNL1        0.0491
     10 C          14.1608   36.1744   10.7841 C.2     1  UNL1        0.2564
     11 S          16.1759   35.0565    9.2855 S.3     1  UNL1       -0.1007
     12 O          14.5301   36.5930    6.1275 O.2     1  UNL1       -0.2735
     13 O          13.2511   35.3080   10.7000 O.2     1  UNL1       -0.2717
     14 N          14.4405   36.9580    8.4532 N.am    1  UNL1       -0.2415
     15 N          14.3780   36.9456   11.9653 N.am    1  UNL1       -0.2818
     16 H          13.8885   36.9053   12.8185 H       1  UNL1        0.1549
     17 C          13.3995   37.9667    8.4252 C.ar    1  UNL1        0.0553
     18 C          12.0700   37.6378    8.7332 C.ar    1  UNL1        0.0162
     19 C          11.0643   38.6065    8.6936 C.ar    1  UNL1        0.0159
     20 C          11.3664   39.9246    8.3421 C.ar    1  UNL1        0.0504
     21 C          12.6898   40.2622    8.0281 C.ar    1  UNL1        0.0159
     22 C          13.6945   39.2923    8.0682 C.ar    1  UNL1        0.0162
     23 C           9.5775   41.3281    7.1593 C.2     1  UNL1        0.2266
     24 C           8.5056   42.3445    7.3194 C.3     1  UNL1        0.0949
     25 O           9.8256   40.8680    6.0137 O.2     1  UNL1       -0.2748
     26 N          10.3076   40.8914    8.3126 N.am    1  UNL1       -0.2839
     27 H          10.0564   41.2972    9.1737 H       1  UNL1        0.1549
@<TRIPOS>BOND
     1     1    11    1
     2     1     4    1
     3     1    14    1
     4     1    10    1
     5     2    11    1
     6     2     3    1
     7     3    14   am
     8    18    19   ar
     9    20    21   ar
    10    20    26    1
    11    22    17   ar
    12    24    23    1
    13     5     6   ar
    14     7     8   ar
    15     9    15    1
    16     9     4   ar
    17    14    17    1
    18    26    23   am
    19    15    10   am
    20     3    12    2
    21    17    18   ar
    22    19    20   ar
    23    21    22   ar
    24    23    25    2
    25     4     5   ar
    26     6     7   ar
    27     8     9   ar
    28    10    13    2
    29    26    27    1
    30    15    16    1
