@<TRIPOS>MOLECULE
Molport-053-318-354 PubChem-110097713
 27 30 0 0 0
SMALL
GASTEIGER

@<TRIPOS>ATOM
      1 C          12.4121   39.8344    8.1440 C.ar    1  UNL1       -0.0168
      2 C          12.8979   40.9646    7.4829 C.ar    1  UNL1        0.0303
      3 C          12.1816   41.4982    6.4089 C.ar    1  UNL1        0.1340
      4 C          10.5215   39.8102    6.6452 C.ar    1  UNL1        0.1000
      5 C          11.2110   39.2507    7.7221 C.ar    1  UNL1        0.0165
      6 N          11.0160   40.9108    6.0175 N.ar    1  UNL1       -0.2290
      7 C          14.6457   38.6277   11.5150 C.3     1  UNL1        0.0724
      8 C          13.3881   39.4340   11.8318 C.3     1  UNL1        0.0177
      9 C          12.4497   39.4890   10.6226 C.3     1  UNL1        0.0072
     10 C          13.1846   39.2760    9.2945 C.3     1  UNL1        0.0385
     11 C          14.6078   39.8431    9.3452 C.3     1  UNL1        0.0767
     12 N          15.4205   39.2466   10.4253 N.3     1  UNL1       -0.2686
     13 C          16.3713   38.2731    9.8740 C.3     1  UNL1        0.1023
     14 C          15.5947   33.6639    8.1125 C.3     1  UNL1        0.1537
     15 C          16.3027   35.9459    8.7765 C.ar    1  UNL1        0.0938
     16 C          15.7523   36.9411    9.5563 C.ar    1  UNL1        0.0335
     17 C          14.5430   36.4700   10.0325 C.ar    1  UNL1        0.1187
     18 N          15.4247   34.9298    8.8000 N.ar    1  UNL1       -0.2476
     19 N          14.3723   35.2263    9.5439 N.ar    1  UNL1       -0.1679
     20 N          12.6918   42.6580    5.7405 N.pl3   1  UNL1       -0.2680
     21 H          12.1377   43.0349    5.0193 H       1  UNL1        0.1565
     22 C          13.9300   43.3230    6.0191 C.ar    1  UNL1        0.2218
     23 C          16.1012   43.3302    6.9637 C.ar    1  UNL1        0.1034
     24 C          16.2967   44.6410    6.5331 C.ar    1  UNL1        0.0414
     25 C          15.2652   45.2681    5.8364 C.ar    1  UNL1        0.1034
     26 N          14.9284   42.6971    6.7010 N.ar    1  UNL1       -0.2120
     27 N          14.1066   44.6018    5.5930 N.ar    1  UNL1       -0.2120
@<TRIPOS>BOND
     1    14    18    1
     2    16    17   ar
     3    13    16    1
     4    13    12    1
     5     7    12    1
     6     7     8    1
     7     8     9    1
     8     9    10    1
     9    10    11    1
    10    10     1    1
    11    11    12    1
    12     2     3   ar
    13     3    20    1
    14     4     6   ar
    15     5     1   ar
    16    22    27   ar
    17    23    26   ar
    18    24    25   ar
    19    18    15   ar
    20    18    19   ar
    21    20    22    1
    22    15    16   ar
    23    17    19   ar
    24     1     2   ar
    25     3     6   ar
    26     4     5   ar
    27    22    26   ar
    28    23    24   ar
    29    25    27   ar
    30    20    21    1
@<TRIPOS>MOLECULE
Molport-053-318-354 PubChem-110097713
 27 30 0 0 0
SMALL
GASTEIGER

@<TRIPOS>ATOM
      1 C          12.5670   39.8322    8.1352 C.ar    1  UNL1       -0.0168
      2 C          13.4675   40.8498    7.8125 C.ar    1  UNL1        0.0303
      3 C          13.1029   41.8255    6.8816 C.ar    1  UNL1        0.1340
      4 C          10.9776   40.7948    6.5962 C.ar    1  UNL1        0.1000
      5 C          11.3083   39.8039    7.5219 C.ar    1  UNL1        0.0165
      6 N          11.8724   41.7748    6.2984 N.ar    1  UNL1       -0.2290
      7 C          13.3863   37.0234   11.1763 C.3     1  UNL1        0.0724
      8 C          12.0091   36.8885   10.5303 C.3     1  UNL1        0.0177
      9 C          11.9430   37.6588    9.2081 C.3     1  UNL1        0.0072
     10 C          12.9666   38.7974    9.1360 C.3     1  UNL1        0.0385
     11 C          13.2142   39.4154   10.5167 C.3     1  UNL1        0.0767
     12 N          13.6897   38.4269   11.5064 N.3     1  UNL1       -0.2686
     13 C          15.1312   38.5846   11.7373 C.3     1  UNL1        0.1023
     14 C          19.0292   36.7728    9.1931 C.3     1  UNL1        0.1537
     15 C          17.3472   37.9180   10.6103 C.ar    1  UNL1        0.0938
     16 C          15.9832   37.8033   10.7769 C.ar    1  UNL1        0.0335
     17 C          15.5474   36.8020    9.9294 C.ar    1  UNL1        0.1187
     18 N          17.6841   37.0071    9.6826 N.ar    1  UNL1       -0.2476
     19 N          16.6237   36.3345    9.2679 N.ar    1  UNL1       -0.1679
     20 N          14.0366   42.8635    6.5605 N.pl3   1  UNL1       -0.2680
     21 H          13.7470   43.5325    5.8988 H       1  UNL1        0.1565
     22 C          15.3507   43.0231    7.1085 C.ar    1  UNL1        0.2218
     23 C          17.1070   42.2751    8.5095 C.ar    1  UNL1        0.1034
     24 C          17.8851   43.3698    8.1379 C.ar    1  UNL1        0.0414
     25 C          17.3491   44.2843    7.2330 C.ar    1  UNL1        0.1034
     26 N          15.8606   42.1211    7.9916 N.ar    1  UNL1       -0.2120
     27 N          16.0985   44.0960    6.7370 N.ar    1  UNL1       -0.2120
@<TRIPOS>BOND
     1    14    18    1
     2    16    17   ar
     3    13    16    1
     4    13    12    1
     5     7    12    1
     6     7     8    1
     7     8     9    1
     8     9    10    1
     9    10    11    1
    10    10     1    1
    11    11    12    1
    12     2     3   ar
    13     3    20    1
    14     4     6   ar
    15     5     1   ar
    16    22    27   ar
    17    23    26   ar
    18    24    25   ar
    19    18    15   ar
    20    18    19   ar
    21    20    22    1
    22    15    16   ar
    23    17    19   ar
    24     1     2   ar
    25     3     6   ar
    26     4     5   ar
    27    22    26   ar
    28    23    24   ar
    29    25    27   ar
    30    20    21    1
@<TRIPOS>MOLECULE
Molport-053-318-354 PubChem-110097713
 27 30 0 0 0
SMALL
GASTEIGER

@<TRIPOS>ATOM
      1 C           8.9840   40.3980    7.3763 C.ar    1  UNL1       -0.0168
      2 C           8.0063   41.2548    7.8866 C.ar    1  UNL1        0.0303
      3 C           6.6690   41.0685    7.5284 C.ar    1  UNL1        0.1340
      4 C           7.2652   39.2045    6.1752 C.ar    1  UNL1        0.1000
      5 C           8.6106   39.3611    6.5121 C.ar    1  UNL1        0.0165
      6 N           6.3321   40.0525    6.6850 N.ar    1  UNL1       -0.2290
      7 C          12.8902   41.2893    8.7015 C.3     1  UNL1        0.0724
      8 C          11.8811   41.0128    9.8139 C.3     1  UNL1        0.0177
      9 C          10.6275   40.3269    9.2626 C.3     1  UNL1        0.0072
     10 C          10.4101   40.6042    7.7709 C.3     1  UNL1        0.0385
     11 C          10.9049   42.0024    7.3838 C.3     1  UNL1        0.0767
     12 N          12.3362   42.2050    7.6889 N.3     1  UNL1       -0.2686
     13 C          13.1376   42.1344    6.4607 C.3     1  UNL1        0.1023
     14 C          17.6361   44.1746    7.2038 C.3     1  UNL1        0.1537
     15 C          15.5241   42.8819    7.0701 C.ar    1  UNL1        0.0938
     16 C          14.3076   43.0775    6.4508 C.ar    1  UNL1        0.0335
     17 C          14.3771   44.2830    5.7778 C.ar    1  UNL1        0.1187
     18 N          16.2714   43.9552    6.7640 N.ar    1  UNL1       -0.2476
     19 N          15.6027   44.7980    5.9950 N.ar    1  UNL1       -0.1679
     20 N           5.6768   41.9548    8.0598 N.pl3   1  UNL1       -0.2680
     21 H           5.4787   42.7648    7.5364 H       1  UNL1        0.1565
     22 C           4.9449   41.7773    9.2785 C.ar    1  UNL1        0.2218
     23 C           4.7722   40.9068   11.4737 C.ar    1  UNL1        0.1034
     24 C           3.5006   41.4610   11.6059 C.ar    1  UNL1        0.0414
     25 C           2.9781   42.1789   10.5316 C.ar    1  UNL1        0.1034
     26 N           5.4687   41.0733   10.3194 N.ar    1  UNL1       -0.2120
     27 N           3.7052   42.3237    9.3933 N.ar    1  UNL1       -0.2120
@<TRIPOS>BOND
     1    14    18    1
     2    16    17   ar
     3    13    16    1
     4    13    12    1
     5     7    12    1
     6     7     8    1
     7     8     9    1
     8     9    10    1
     9    10    11    1
    10    10     1    1
    11    11    12    1
    12     2     3   ar
    13     3    20    1
    14     4     6   ar
    15     5     1   ar
    16    22    27   ar
    17    23    26   ar
    18    24    25   ar
    19    18    15   ar
    20    18    19   ar
    21    20    22    1
    22    15    16   ar
    23    17    19   ar
    24     1     2   ar
    25     3     6   ar
    26     4     5   ar
    27    22    26   ar
    28    23    24   ar
    29    25    27   ar
    30    20    21    1
@<TRIPOS>MOLECULE
Molport-053-318-354 PubChem-110097713
 27 30 0 0 0
SMALL
GASTEIGER

@<TRIPOS>ATOM
      1 C          10.0996   41.0881   10.8276 C.ar    1  UNL1       -0.0168
      2 C           9.0792   41.6702   10.0723 C.ar    1  UNL1        0.0303
      3 C           7.9070   42.0925   10.7038 C.ar    1  UNL1        0.1340
      4 C           8.7502   41.3693   12.8078 C.ar    1  UNL1        0.1000
      5 C           9.9348   40.9363   12.2100 C.ar    1  UNL1        0.0165
      6 N           7.7712   41.9326   12.0502 N.ar    1  UNL1       -0.2290
      7 C          13.8292   40.0781    9.1307 C.3     1  UNL1        0.0724
      8 C          13.7096   39.8067   10.6288 C.3     1  UNL1        0.0177
      9 C          12.2449   39.8231   11.0764 C.3     1  UNL1        0.0072
     10 C          11.3507   40.6451   10.1415 C.3     1  UNL1        0.0385
     11 C          12.1121   41.8309    9.5384 C.3     1  UNL1        0.0767
     12 N          13.3115   41.4132    8.7836 N.3     1  UNL1       -0.2686
     13 C          13.0614   41.4910    7.3388 C.3     1  UNL1        0.1023
     14 C          16.9307   44.3246    5.9425 C.3     1  UNL1        0.1537
     15 C          15.2393   42.7976    6.9207 C.ar    1  UNL1        0.0938
     16 C          13.9245   42.4981    6.6323 C.ar    1  UNL1        0.0335
     17 C          13.5577   43.2628    5.5406 C.ar    1  UNL1        0.1187
     18 N          15.6150   43.7187    6.0182 N.ar    1  UNL1       -0.2476
     19 N          14.6252   44.0055    5.1895 N.ar    1  UNL1       -0.1679
     20 N           6.8689   42.6883    9.9165 N.pl3   1  UNL1       -0.2680
     21 H           7.1172   43.4702    9.3724 H       1  UNL1        0.1565
     22 C           5.5045   42.2570    9.8438 C.ar    1  UNL1        0.2218
     23 C           3.8422   40.6044   10.1785 C.ar    1  UNL1        0.1034
     24 C           2.8669   41.4693    9.6863 C.ar    1  UNL1        0.0414
     25 C           3.2592   42.7421    9.2758 C.ar    1  UNL1        0.1034
     26 N           5.1367   41.0103   10.2487 N.ar    1  UNL1       -0.2120
     27 N           4.5637   43.1116    9.3613 N.ar    1  UNL1       -0.2120
@<TRIPOS>BOND
     1    14    18    1
     2    16    17   ar
     3    13    16    1
     4    13    12    1
     5     7    12    1
     6     7     8    1
     7     8     9    1
     8     9    10    1
     9    10    11    1
    10    10     1    1
    11    11    12    1
    12     2     3   ar
    13     3    20    1
    14     4     6   ar
    15     5     1   ar
    16    22    27   ar
    17    23    26   ar
    18    24    25   ar
    19    18    15   ar
    20    18    19   ar
    21    20    22    1
    22    15    16   ar
    23    17    19   ar
    24     1     2   ar
    25     3     6   ar
    26     4     5   ar
    27    22    26   ar
    28    23    24   ar
    29    25    27   ar
    30    20    21    1
@<TRIPOS>MOLECULE
Molport-053-318-354 PubChem-110097713
 27 30 0 0 0
SMALL
GASTEIGER

@<TRIPOS>ATOM
      1 C          11.8013   41.0424   10.0569 C.ar    1  UNL1       -0.0168
      2 C          12.3548   41.6557    8.9309 C.ar    1  UNL1        0.0303
      3 C          13.5855   41.2148    8.4386 C.ar    1  UNL1        0.1340
      4 C          13.7149   39.5764   10.1590 C.ar    1  UNL1        0.1000
      5 C          12.4872   39.9910   10.6778 C.ar    1  UNL1        0.0165
      6 N          14.2331   40.1904    9.0617 N.ar    1  UNL1       -0.2290
      7 C           7.9770   42.0121   11.5546 C.3     1  UNL1        0.0724
      8 C           8.8451   41.1814   12.4971 C.3     1  UNL1        0.0177
      9 C          10.3135   41.2101   12.0625 C.3     1  UNL1        0.0072
     10 C          10.4821   41.5195   10.5708 C.3     1  UNL1        0.0385
     11 C           9.3193   40.9545    9.7473 C.3     1  UNL1        0.0767
     12 N           8.0069   41.4748   10.1830 N.3     1  UNL1       -0.2686
     13 C           7.5178   42.4880    9.2396 C.3     1  UNL1        0.1023
     14 C           2.6699   41.2898    9.3519 C.3     1  UNL1        0.1537
     15 C           5.1398   41.5109    9.3640 C.ar    1  UNL1        0.0938
     16 C           6.0191   42.5509    9.1479 C.ar    1  UNL1        0.0335
     17 C           5.2657   43.6776    8.8760 C.ar    1  UNL1        0.1187
     18 N           3.9100   42.0292    9.2124 N.ar    1  UNL1       -0.2476
     19 N           3.9684   43.3181    8.9223 N.ar    1  UNL1       -0.1679
     20 N          14.1411   41.8531    7.2826 N.pl3   1  UNL1       -0.2680
     21 H          13.6303   41.7769    6.4445 H       1  UNL1        0.1565
     22 C          15.3677   42.5914    7.2274 C.ar    1  UNL1        0.2218
     23 C          16.7347   44.2502    6.2342 C.ar    1  UNL1        0.1034
     24 C          17.7440   43.9882    7.1584 C.ar    1  UNL1        0.0414
     25 C          17.5213   43.0022    8.1179 C.ar    1  UNL1        0.1034
     26 N          15.5705   43.5518    6.2840 N.ar    1  UNL1       -0.2120
     27 N          16.3437   42.3250    8.1355 N.ar    1  UNL1       -0.2120
@<TRIPOS>BOND
     1    14    18    1
     2    16    17   ar
     3    13    16    1
     4    13    12    1
     5     7    12    1
     6     7     8    1
     7     8     9    1
     8     9    10    1
     9    10    11    1
    10    10     1    1
    11    11    12    1
    12     2     3   ar
    13     3    20    1
    14     4     6   ar
    15     5     1   ar
    16    22    27   ar
    17    23    26   ar
    18    24    25   ar
    19    18    15   ar
    20    18    19   ar
    21    20    22    1
    22    15    16   ar
    23    17    19   ar
    24     1     2   ar
    25     3     6   ar
    26     4     5   ar
    27    22    26   ar
    28    23    24   ar
    29    25    27   ar
    30    20    21    1
@<TRIPOS>MOLECULE
Molport-053-318-354 PubChem-110097713
 27 30 0 0 0
SMALL
GASTEIGER

@<TRIPOS>ATOM
      1 C          10.1050   41.0128   10.9554 C.ar    1  UNL1       -0.0168
      2 C           9.0637   41.5520   10.1969 C.ar    1  UNL1        0.0303
      3 C           7.8849   41.9549   10.8291 C.ar    1  UNL1        0.1340
      4 C           8.7629   41.2966   12.9402 C.ar    1  UNL1        0.1000
      5 C           9.9545   40.8841   12.3418 C.ar    1  UNL1        0.0165
      6 N           7.7634   41.8180   12.1795 N.ar    1  UNL1       -0.2290
      7 C          13.8482   40.0706    9.2497 C.3     1  UNL1        0.0724
      8 C          13.7467   39.8252   10.7536 C.3     1  UNL1        0.0177
      9 C          12.2853   39.8109   11.2120 C.3     1  UNL1        0.0072
     10 C          11.3626   40.5903   10.2684 C.3     1  UNL1        0.0385
     11 C          12.0875   41.7842    9.6368 C.3     1  UNL1        0.0767
     12 N          13.2923   41.3843    8.8810 N.3     1  UNL1       -0.2686
     13 C          13.0299   41.4273    7.4370 C.3     1  UNL1        0.1023
     14 C          16.8456   44.2665    5.9106 C.3     1  UNL1        0.1537
     15 C          15.1911   42.7355    6.9441 C.ar    1  UNL1        0.0938
     16 C          13.8664   42.4376    6.7034 C.ar    1  UNL1        0.0335
     17 C          13.4595   43.2072    5.6296 C.ar    1  UNL1        0.1187
     18 N          15.5333   43.6605    6.0324 N.ar    1  UNL1       -0.2476
     19 N          14.5135   43.9513    5.2424 N.ar    1  UNL1       -0.1679
     20 N           6.8253   42.5065   10.0384 N.pl3   1  UNL1       -0.2680
     21 H           6.0506   42.8699   10.5253 H       1  UNL1        0.1565
     22 C           6.7831   42.5810    8.6083 C.ar    1  UNL1        0.2218
     23 C           6.6397   43.8451    6.6112 C.ar    1  UNL1        0.1034
     24 C           6.7054   42.6774    5.8537 C.ar    1  UNL1        0.0414
     25 C           6.8113   41.4602    6.5244 C.ar    1  UNL1        0.1034
     26 N           6.6795   43.7777    7.9674 N.ar    1  UNL1       -0.2120
     27 N           6.8481   41.4335    7.8821 N.ar    1  UNL1       -0.2120
@<TRIPOS>BOND
     1    14    18    1
     2    16    17   ar
     3    13    16    1
     4    13    12    1
     5     7    12    1
     6     7     8    1
     7     8     9    1
     8     9    10    1
     9    10    11    1
    10    10     1    1
    11    11    12    1
    12     2     3   ar
    13     3    20    1
    14     4     6   ar
    15     5     1   ar
    16    22    27   ar
    17    23    26   ar
    18    24    25   ar
    19    18    15   ar
    20    18    19   ar
    21    20    22    1
    22    15    16   ar
    23    17    19   ar
    24     1     2   ar
    25     3     6   ar
    26     4     5   ar
    27    22    26   ar
    28    23    24   ar
    29    25    27   ar
    30    20    21    1
@<TRIPOS>MOLECULE
Molport-053-318-354 PubChem-110097713
 27 30 0 0 0
SMALL
GASTEIGER

@<TRIPOS>ATOM
      1 C          13.7783   39.6509   10.4315 C.ar    1  UNL1       -0.0168
      2 C          14.7588   40.2863    9.6664 C.ar    1  UNL1        0.0303
      3 C          16.1082   40.0777    9.9610 C.ar    1  UNL1        0.1340
      4 C          15.5186   38.6255   11.7510 C.ar    1  UNL1        0.1000
      5 C          14.1611   38.8108   11.4846 C.ar    1  UNL1        0.0165
      6 N          16.4542   39.2561   10.9917 N.ar    1  UNL1       -0.2290
      7 C           9.8222   40.3307    9.1293 C.3     1  UNL1        0.0724
      8 C          10.5144   39.1317    8.4847 C.3     1  UNL1        0.0177
      9 C          11.7608   38.7242    9.2760 C.3     1  UNL1        0.0072
     10 C          12.3386   39.8779   10.1034 C.3     1  UNL1        0.0385
     11 C          12.1256   41.2270    9.4076 C.3     1  UNL1        0.0767
     12 N          10.7003   41.5137    9.1447 N.3     1  UNL1       -0.2686
     13 C          10.1901   42.5011   10.1041 C.3     1  UNL1        0.1023
     14 C           5.4529   41.4248   11.2664 C.3     1  UNL1        0.1537
     15 C           7.6591   42.1152   10.3689 C.ar    1  UNL1        0.0938
     16 C           8.9559   42.0496   10.8331 C.ar    1  UNL1        0.0335
     17 C           8.9183   41.4478   12.0770 C.ar    1  UNL1        0.1187
     18 N           6.8949   41.5691   11.3290 N.ar    1  UNL1       -0.2476
     19 N           7.6300   41.1666   12.3520 N.ar    1  UNL1       -0.1679
     20 N          17.1030   40.7358    9.1675 N.pl3   1  UNL1       -0.2680
     21 H          17.9901   40.3108    9.1250 H       1  UNL1        0.1565
     22 C          16.9328   41.9520    8.4296 C.ar    1  UNL1        0.2218
     23 C          17.7479   44.0492    7.6918 C.ar    1  UNL1        0.1034
     24 C          16.5623   44.2783    6.9964 C.ar    1  UNL1        0.0414
     25 C          15.5693   43.3015    7.0442 C.ar    1  UNL1        0.1034
     26 N          17.9122   42.8969    8.3923 N.ar    1  UNL1       -0.2120
     27 N          15.7708   42.1620    7.7559 N.ar    1  UNL1       -0.2120
@<TRIPOS>BOND
     1    14    18    1
     2    16    17   ar
     3    13    16    1
     4    13    12    1
     5     7    12    1
     6     7     8    1
     7     8     9    1
     8     9    10    1
     9    10    11    1
    10    10     1    1
    11    11    12    1
    12     2     3   ar
    13     3    20    1
    14     4     6   ar
    15     5     1   ar
    16    22    27   ar
    17    23    26   ar
    18    24    25   ar
    19    18    15   ar
    20    18    19   ar
    21    20    22    1
    22    15    16   ar
    23    17    19   ar
    24     1     2   ar
    25     3     6   ar
    26     4     5   ar
    27    22    26   ar
    28    23    24   ar
    29    25    27   ar
    30    20    21    1
@<TRIPOS>MOLECULE
Molport-053-318-354 PubChem-110097713
 27 30 0 0 0
SMALL
GASTEIGER

@<TRIPOS>ATOM
      1 C          11.9667   41.0160   10.1577 C.ar    1  UNL1       -0.0168
      2 C          12.9890   41.3242    9.2575 C.ar    1  UNL1        0.0303
      3 C          14.1812   40.5970    9.2903 C.ar    1  UNL1        0.1340
      4 C          13.3539   39.2741   11.0866 C.ar    1  UNL1        0.1000
      5 C          12.1497   39.9797   11.0819 C.ar    1  UNL1        0.0165
      6 N          14.3344   39.5940   10.2000 N.ar    1  UNL1       -0.2290
      7 C           8.5157   43.4397   10.3170 C.3     1  UNL1        0.0724
      8 C           9.8188   44.1924   10.0572 C.3     1  UNL1        0.0177
      9 C          10.9331   43.2331    9.6282 C.3     1  UNL1        0.0072
     10 C          10.6944   41.7975   10.1094 C.3     1  UNL1        0.0385
     11 C           9.9671   41.7733   11.4586 C.3     1  UNL1        0.0767
     12 N           8.6652   42.4704   11.4166 N.3     1  UNL1       -0.2686
     13 C           7.5643   41.4996   11.3788 C.3     1  UNL1        0.1023
     14 C           6.7278   40.6653    6.5255 C.3     1  UNL1        0.1537
     15 C           7.5117   41.0033    8.8537 C.ar    1  UNL1        0.0938
     16 C           6.9071   41.3875   10.0320 C.ar    1  UNL1        0.0335
     17 C           5.5703   41.6066    9.7566 C.ar    1  UNL1        0.1187
     18 N           6.5438   41.0090    7.9226 N.ar    1  UNL1       -0.2476
     19 N           5.3823   41.3655    8.4448 N.ar    1  UNL1       -0.1679
     20 N          15.2210   40.9240    8.3607 N.pl3   1  UNL1       -0.2680
     21 H          15.9106   40.2385    8.2062 H       1  UNL1        0.1565
     22 C          15.3553   42.1514    7.6339 C.ar    1  UNL1        0.2218
     23 C          16.4837   44.1914    7.2197 C.ar    1  UNL1        0.1034
     24 C          15.5756   44.5019    6.2095 C.ar    1  UNL1        0.0414
     25 C          14.5536   43.5940    5.9381 C.ar    1  UNL1        0.1034
     26 N          16.3591   43.0284    7.9106 N.ar    1  UNL1       -0.2120
     27 N          14.4619   42.4412    6.6509 N.ar    1  UNL1       -0.2120
@<TRIPOS>BOND
     1    14    18    1
     2    16    17   ar
     3    13    16    1
     4    13    12    1
     5     7    12    1
     6     7     8    1
     7     8     9    1
     8     9    10    1
     9    10    11    1
    10    10     1    1
    11    11    12    1
    12     2     3   ar
    13     3    20    1
    14     4     6   ar
    15     5     1   ar
    16    22    27   ar
    17    23    26   ar
    18    24    25   ar
    19    18    15   ar
    20    18    19   ar
    21    20    22    1
    22    15    16   ar
    23    17    19   ar
    24     1     2   ar
    25     3     6   ar
    26     4     5   ar
    27    22    26   ar
    28    23    24   ar
    29    25    27   ar
    30    20    21    1
@<TRIPOS>MOLECULE
Molport-053-318-354 PubChem-110097713
 27 30 0 0 0
SMALL
GASTEIGER

@<TRIPOS>ATOM
      1 C          12.3688   40.7511   10.1970 C.ar    1  UNL1       -0.0168
      2 C          13.2251   41.2295    9.2029 C.ar    1  UNL1        0.0303
      3 C          14.5157   40.7064    9.0921 C.ar    1  UNL1        0.1340
      4 C          14.1108   39.2516   10.9307 C.ar    1  UNL1        0.1000
      5 C          12.8149   39.7511   11.0702 C.ar    1  UNL1        0.0165
      6 N          14.9257   39.7346    9.9548 N.ar    1  UNL1       -0.2290
      7 C           8.3488   41.9786   10.5742 C.3     1  UNL1        0.0724
      8 C           8.9352   41.3068   11.8139 C.3     1  UNL1        0.0177
      9 C          10.4641   41.2541   11.7409 C.3     1  UNL1        0.0072
     10 C          10.9892   41.3148   10.3022 C.3     1  UNL1        0.0385
     11 C          10.0257   40.6311    9.3256 C.3     1  UNL1        0.0767
     12 N           8.6729   41.2245    9.3506 N.3     1  UNL1       -0.2686
     13 C           8.4633   42.0736    8.1712 C.3     1  UNL1        0.1023
     14 C           3.8559   43.9548    8.5997 C.3     1  UNL1        0.1537
     15 C           5.9676   42.6823    8.3339 C.ar    1  UNL1        0.0938
     16 C           7.3043   43.0202    8.3098 C.ar    1  UNL1        0.0335
     17 C           7.3864   44.3892    8.4839 C.ar    1  UNL1        0.1187
     18 N           5.2986   43.8334    8.5109 N.ar    1  UNL1       -0.2476
     19 N           6.1293   44.8583    8.6025 N.ar    1  UNL1       -0.1679
     20 N          15.3830   41.2064    8.0674 N.pl3   1  UNL1       -0.2680
     21 H          16.1968   40.6848    7.8806 H       1  UNL1        0.1565
     22 C          15.1816   42.3916    7.2879 C.ar    1  UNL1        0.2218
     23 C          15.8684   44.5510    6.6010 C.ar    1  UNL1        0.1034
     24 C          14.7544   44.6536    5.7702 C.ar    1  UNL1        0.0414
     25 C          13.8623   43.5837    5.7265 C.ar    1  UNL1        0.1034
     26 N          16.0621   43.4285    7.3412 N.ar    1  UNL1       -0.2120
     27 N          14.0902   42.4777    6.4818 N.ar    1  UNL1       -0.2120
@<TRIPOS>BOND
     1    14    18    1
     2    16    17   ar
     3    13    16    1
     4    13    12    1
     5     7    12    1
     6     7     8    1
     7     8     9    1
     8     9    10    1
     9    10    11    1
    10    10     1    1
    11    11    12    1
    12     2     3   ar
    13     3    20    1
    14     4     6   ar
    15     5     1   ar
    16    22    27   ar
    17    23    26   ar
    18    24    25   ar
    19    18    15   ar
    20    18    19   ar
    21    20    22    1
    22    15    16   ar
    23    17    19   ar
    24     1     2   ar
    25     3     6   ar
    26     4     5   ar
    27    22    26   ar
    28    23    24   ar
    29    25    27   ar
    30    20    21    1
@<TRIPOS>MOLECULE
Molport-053-318-354 PubChem-110097713
 27 30 0 0 0
SMALL
GASTEIGER

@<TRIPOS>ATOM
      1 C          10.6001   41.7467    9.8848 C.ar    1  UNL1       -0.0168
      2 C           9.4609   41.1525   10.4322 C.ar    1  UNL1        0.0303
      3 C           8.4652   41.9550   10.9942 C.ar    1  UNL1        0.1340
      4 C           9.7146   43.9121   10.4749 C.ar    1  UNL1        0.1000
      5 C          10.7290   43.1411    9.9050 C.ar    1  UNL1        0.0165
      6 N           8.6153   43.3094   11.0021 N.ar    1  UNL1       -0.2290
      7 C          13.4222   38.9933    8.3804 C.3     1  UNL1        0.0724
      8 C          11.9656   38.6555    8.0702 C.3     1  UNL1        0.0177
      9 C          11.0588   39.8692    8.2945 C.3     1  UNL1        0.0072
     10 C          11.6557   40.8781    9.2820 C.3     1  UNL1        0.0385
     11 C          12.4922   40.1787   10.3594 C.3     1  UNL1        0.0767
     12 N          13.5959   39.3768    9.7924 N.3     1  UNL1       -0.2686
     13 C          14.8773   40.0721    9.9665 C.3     1  UNL1        0.1023
     14 C          14.4381   43.2113    6.1061 C.3     1  UNL1        0.1537
     15 C          14.2855   41.5700    7.9587 C.ar    1  UNL1        0.0938
     16 C          15.1818   41.0553    8.8714 C.ar    1  UNL1        0.0335
     17 C          16.4068   41.6463    8.6242 C.ar    1  UNL1        0.1187
     18 N          14.9835   42.4317    7.2009 N.ar    1  UNL1       -0.2476
     19 N          16.2477   42.4885    7.5851 N.ar    1  UNL1       -0.1679
     20 N           7.3020   41.3318   11.5517 N.pl3   1  UNL1       -0.2680
     21 H           7.4203   40.8514   12.4029 H       1  UNL1        0.1565
     22 C           5.9834   41.3394   10.9915 C.ar    1  UNL1        0.2218
     23 C           3.6363   41.5267   11.2414 C.ar    1  UNL1        0.1034
     24 C           3.4643   41.3470    9.8704 C.ar    1  UNL1        0.0414
     25 C           4.5982   41.1634    9.0810 C.ar    1  UNL1        0.1034
     26 N           4.8853   41.5200   11.7756 N.ar    1  UNL1       -0.2120
     27 N           5.8308   41.1628    9.6521 N.ar    1  UNL1       -0.2120
@<TRIPOS>BOND
     1    14    18    1
     2    16    17   ar
     3    13    16    1
     4    13    12    1
     5     7    12    1
     6     7     8    1
     7     8     9    1
     8     9    10    1
     9    10    11    1
    10    10     1    1
    11    11    12    1
    12     2     3   ar
    13     3    20    1
    14     4     6   ar
    15     5     1   ar
    16    22    27   ar
    17    23    26   ar
    18    24    25   ar
    19    18    15   ar
    20    18    19   ar
    21    20    22    1
    22    15    16   ar
    23    17    19   ar
    24     1     2   ar
    25     3     6   ar
    26     4     5   ar
    27    22    26   ar
    28    23    24   ar
    29    25    27   ar
    30    20    21    1
