@<TRIPOS>MOLECULE
MolPort-007-723-513 6818335 ChemDiv-E157-6081 MCULE-5170926731 PubChem-22518058 ZINC000006818335 ZINC06818335
 28 30 0 0 0
SMALL
GASTEIGER

@<TRIPOS>ATOM
      1 C           9.1261   41.1834    6.2572 C.ar    1  UNL1        0.2593
      2 C          11.4778   41.4284    6.5845 C.ar    1  UNL1        0.1896
      3 N           9.8314   41.0905    5.1091 N.ar    1  UNL1       -0.1187
      4 N          11.1433   41.2275    5.2905 N.ar    1  UNL1       -0.1239
      5 S          10.1267   41.4417    7.5869 S.2     1  UNL1       -0.0102
      6 C          13.6691   42.7078    6.7301 C.2     1  UNL1        0.2509
      7 N          12.8185   41.5995    7.0532 N.am    1  UNL1       -0.2592
      8 O          13.2551   43.6312    5.9774 O.2     1  UNL1       -0.2698
      9 H          13.1857   40.9023    7.6434 H       1  UNL1        0.1571
     10 C          15.0348   42.7674    7.2796 C.ar    1  UNL1        0.0534
     11 C          15.5098   41.7418    8.1102 C.ar    1  UNL1        0.0003
     12 C          16.8055   41.7975    8.6319 C.ar    1  UNL1       -0.0217
     13 C          17.2997   40.7059    9.5106 C.3     1  UNL1        0.0310
     14 C          17.6358   42.8793    8.3270 C.ar    1  UNL1       -0.0043
     15 C          17.1706   43.9063    7.5015 C.ar    1  UNL1       -0.0002
     16 C          15.8752   43.8502    6.9794 C.ar    1  UNL1        0.0045
     17 S           7.3849   41.0142    6.3442 S.O2    1  UNL1        0.1010
     18 O           6.9803   39.6379    5.8959 O.2     1  UNL1       -0.1477
     19 O           6.7514   42.0275    5.4319 O.2     1  UNL1       -0.1477
     20 C           5.6176   40.6201    8.4030 C.3     1  UNL1        0.1392
     21 N           6.8539   41.2648    7.9807 N.pl3   1  UNL1       -0.1870
     22 C           7.5924   42.1009    8.8943 C.ar    1  UNL1        0.0686
     23 C           7.6618   43.4903    8.6934 C.ar    1  UNL1        0.0119
     24 C           8.3766   44.3037    9.5773 C.ar    1  UNL1       -0.0206
     25 C           8.4414   45.7708    9.3492 C.3     1  UNL1        0.0311
     26 C           9.0328   43.7373   10.6723 C.ar    1  UNL1       -0.0042
     27 C           8.9720   42.3581   10.8850 C.ar    1  UNL1        0.0010
     28 C           8.2555   41.5460   10.0016 C.ar    1  UNL1        0.0161
@<TRIPOS>BOND
     1    20    21    1
     2    23    24   ar
     3    25    24    1
     4    26    27   ar
     5    28    22   ar
     6     1     5   ar
     7     2     7    1
     8     2     5   ar
     9     6    10    1
    10    11    12   ar
    11    13    12    1
    12    14    15   ar
    13    16    10   ar
    14    21    22    1
    15     3     4   ar
    16     7     6   am
    17    17    21    1
    18    17     1    1
    19    22    23   ar
    20    24    26   ar
    21    27    28   ar
    22     1     3   ar
    23     2     4   ar
    24     6     8    2
    25    10    11   ar
    26    12    14   ar
    27    15    16   ar
    28    17    18    2
    29    17    19    2
    30     7     9    1
@<TRIPOS>MOLECULE
MolPort-007-723-513 6818335 ChemDiv-E157-6081 MCULE-5170926731 PubChem-22518058 ZINC000006818335 ZINC06818335
 28 30 0 0 0
SMALL
GASTEIGER

@<TRIPOS>ATOM
      1 C           9.2476   41.3358    6.1541 C.ar    1  UNL1        0.2593
      2 C          11.6197   41.4553    6.3919 C.ar    1  UNL1        0.1896
      3 N           9.9095   40.9627    5.0375 N.ar    1  UNL1       -0.1187
      4 N          11.2328   41.0294    5.1689 N.ar    1  UNL1       -0.1239
      5 S          10.3037   41.7726    7.3910 S.2     1  UNL1       -0.0102
      6 C          13.7695   42.7937    6.6083 C.2     1  UNL1        0.2509
      7 N          12.9828   41.6099    6.7976 N.am    1  UNL1       -0.2592
      8 O          13.2722   43.8066    6.0449 O.2     1  UNL1       -0.2698
      9 H          13.4141   40.8441    7.2411 H       1  UNL1        0.1571
     10 C          15.1670   42.8264    7.0738 C.ar    1  UNL1        0.0534
     11 C          15.6169   41.9051    8.0307 C.ar    1  UNL1        0.0003
     12 C          16.9427   41.9353    8.4728 C.ar    1  UNL1       -0.0217
     13 C          17.4100   40.9546    9.4866 C.3     1  UNL1        0.0310
     14 C          17.8285   42.8873    7.9612 C.ar    1  UNL1       -0.0043
     15 C          17.3887   43.8102    7.0085 C.ar    1  UNL1       -0.0002
     16 C          16.0631   43.7794    6.5661 C.ar    1  UNL1        0.0045
     17 S           7.5020   41.3245    6.2983 S.O2    1  UNL1        0.1010
     18 O           6.9579   40.0016    5.8370 O.2     1  UNL1       -0.1477
     19 O           6.9349   42.4121    5.4289 O.2     1  UNL1       -0.1477
     20 C           7.8939   41.0038    8.9929 C.3     1  UNL1        0.1392
     21 N           7.0503   41.5848    7.9569 N.pl3   1  UNL1       -0.1870
     22 C           5.8677   42.3308    8.3091 C.ar    1  UNL1        0.0686
     23 C           4.8932   41.7681    9.1514 C.ar    1  UNL1        0.0119
     24 C           3.7457   42.4887    9.4951 C.ar    1  UNL1       -0.0206
     25 C           2.7244   41.8781   10.3854 C.3     1  UNL1        0.0311
     26 C           3.5575   43.7805    8.9987 C.ar    1  UNL1       -0.0042
     27 C           4.5177   44.3527    8.1611 C.ar    1  UNL1        0.0010
     28 C           5.6655   43.6320    7.8197 C.ar    1  UNL1        0.0161
@<TRIPOS>BOND
     1    20    21    1
     2    23    24   ar
     3    25    24    1
     4    26    27   ar
     5    28    22   ar
     6     1     5   ar
     7     2     7    1
     8     2     5   ar
     9     6    10    1
    10    11    12   ar
    11    13    12    1
    12    14    15   ar
    13    16    10   ar
    14    21    22    1
    15     3     4   ar
    16     7     6   am
    17    17    21    1
    18    17     1    1
    19    22    23   ar
    20    24    26   ar
    21    27    28   ar
    22     1     3   ar
    23     2     4   ar
    24     6     8    2
    25    10    11   ar
    26    12    14   ar
    27    15    16   ar
    28    17    18    2
    29    17    19    2
    30     7     9    1
@<TRIPOS>MOLECULE
MolPort-007-723-513 6818335 ChemDiv-E157-6081 MCULE-5170926731 PubChem-22518058 ZINC000006818335 ZINC06818335
 28 30 0 0 0
SMALL
GASTEIGER

@<TRIPOS>ATOM
      1 C           9.1397   41.3700    6.1924 C.ar    1  UNL1        0.2593
      2 C          11.5133   41.4572    6.4289 C.ar    1  UNL1        0.1896
      3 N           9.7959   40.9476    5.0901 N.ar    1  UNL1       -0.1187
      4 N          11.1201   40.9963    5.2207 N.ar    1  UNL1       -0.1239
      5 S          10.2023   41.8309    7.4149 S.2     1  UNL1       -0.0102
      6 C          13.6899   42.7597    6.5888 C.2     1  UNL1        0.2509
      7 N          12.8785   41.6024    6.8308 N.am    1  UNL1       -0.2592
      8 O          13.2148   43.7553    5.9774 O.2     1  UNL1       -0.2698
      9 H          13.2932   40.8494    7.3107 H       1  UNL1        0.1571
     10 C          15.0870   42.7852    7.0561 C.ar    1  UNL1        0.0534
     11 C          15.5306   41.8624    8.0145 C.ar    1  UNL1        0.0003
     12 C          16.8560   41.8858    8.4584 C.ar    1  UNL1       -0.0217
     13 C          17.3165   40.9036    9.4738 C.3     1  UNL1        0.0310
     14 C          17.7476   42.8326    7.9471 C.ar    1  UNL1       -0.0043
     15 C          17.3141   43.7568    6.9930 C.ar    1  UNL1       -0.0002
     16 C          15.9889   43.7328    6.5488 C.ar    1  UNL1        0.0045
     17 S           7.3940   41.3933    6.3347 S.O2    1  UNL1        0.1010
     18 O           6.8155   40.1326    5.7563 O.2     1  UNL1       -0.1477
     19 O           6.8589   42.5697    5.5666 O.2     1  UNL1       -0.1477
     20 C           5.7172   40.8585    8.4370 C.3     1  UNL1        0.1392
     21 N           6.9453   41.5158    8.0099 N.pl3   1  UNL1       -0.1870
     22 C           7.7426   42.2607    8.9525 C.ar    1  UNL1        0.0686
     23 C           8.4542   41.5973    9.9670 C.ar    1  UNL1        0.0119
     24 C           9.2283   42.3164   10.8822 C.ar    1  UNL1       -0.0206
     25 C           9.9731   41.5994   11.9498 C.3     1  UNL1        0.0311
     26 C           9.2986   43.7086   10.7955 C.ar    1  UNL1       -0.0042
     27 C           8.5972   44.3813    9.7923 C.ar    1  UNL1        0.0010
     28 C           7.8250   43.6611    8.8767 C.ar    1  UNL1        0.0161
@<TRIPOS>BOND
     1    20    21    1
     2    23    24   ar
     3    25    24    1
     4    26    27   ar
     5    28    22   ar
     6     1     5   ar
     7     2     7    1
     8     2     5   ar
     9     6    10    1
    10    11    12   ar
    11    13    12    1
    12    14    15   ar
    13    16    10   ar
    14    21    22    1
    15     3     4   ar
    16     7     6   am
    17    17    21    1
    18    17     1    1
    19    22    23   ar
    20    24    26   ar
    21    27    28   ar
    22     1     3   ar
    23     2     4   ar
    24     6     8    2
    25    10    11   ar
    26    12    14   ar
    27    15    16   ar
    28    17    18    2
    29    17    19    2
    30     7     9    1
@<TRIPOS>MOLECULE
MolPort-007-723-513 6818335 ChemDiv-E157-6081 MCULE-5170926731 PubChem-22518058 ZINC000006818335 ZINC06818335
 28 30 0 0 0
SMALL
GASTEIGER

@<TRIPOS>ATOM
      1 C          13.7064   38.1414   10.7296 C.ar    1  UNL1        0.2593
      2 C          11.5633   38.3534    9.7001 C.ar    1  UNL1        0.1896
      3 N          13.3627   37.0592    9.9981 N.ar    1  UNL1       -0.1187
      4 N          12.1672   37.1762    9.4238 N.ar    1  UNL1       -0.1239
      5 S          12.5114   39.3274   10.6915 S.2     1  UNL1       -0.0102
      6 C          10.0467   39.4841    8.0027 C.2     1  UNL1        0.2509
      7 N          10.2772   38.7354    9.2037 N.am    1  UNL1       -0.2592
      8 O          11.0168   39.8622    7.2908 O.2     1  UNL1       -0.2698
      9 H           9.4892   38.4632    9.7274 H       1  UNL1        0.1571
     10 C           8.6689   39.8144    7.5986 C.ar    1  UNL1        0.0534
     11 C           7.9402   40.7886    8.2963 C.ar    1  UNL1        0.0003
     12 C           6.6329   41.1028    7.9136 C.ar    1  UNL1       -0.0217
     13 C           5.8691   42.1368    8.6588 C.3     1  UNL1        0.0310
     14 C           6.0446   40.4447    6.8302 C.ar    1  UNL1       -0.0043
     15 C           6.7626   39.4717    6.1301 C.ar    1  UNL1       -0.0002
     16 C           8.0700   39.1581    6.5126 C.ar    1  UNL1        0.0045
     17 S          15.2307   38.2963   11.5784 S.O2    1  UNL1        0.1010
     18 O          15.6763   36.9520   12.0818 O.2     1  UNL1       -0.1477
     19 O          15.0426   39.2162   12.7525 O.2     1  UNL1       -0.1477
     20 C          17.7583   38.3215   10.5162 C.3     1  UNL1        0.1392
     21 N          16.4372   38.9355   10.5020 N.pl3   1  UNL1       -0.1870
     22 C          16.1588   40.0529    9.6342 C.ar    1  UNL1        0.0686
     23 C          17.1344   41.0381    9.4037 C.ar    1  UNL1        0.0119
     24 C          16.8679   42.1225    8.5627 C.ar    1  UNL1       -0.0206
     25 C          17.9101   43.1564    8.3312 C.3     1  UNL1        0.0311
     26 C          15.6213   42.2361    7.9434 C.ar    1  UNL1       -0.0042
     27 C          14.6423   41.2642    8.1627 C.ar    1  UNL1        0.0010
     28 C          14.9105   40.1796    9.0023 C.ar    1  UNL1        0.0161
@<TRIPOS>BOND
     1    20    21    1
     2    23    24   ar
     3    25    24    1
     4    26    27   ar
     5    28    22   ar
     6     1     5   ar
     7     2     7    1
     8     2     5   ar
     9     6    10    1
    10    11    12   ar
    11    13    12    1
    12    14    15   ar
    13    16    10   ar
    14    21    22    1
    15     3     4   ar
    16     7     6   am
    17    17    21    1
    18    17     1    1
    19    22    23   ar
    20    24    26   ar
    21    27    28   ar
    22     1     3   ar
    23     2     4   ar
    24     6     8    2
    25    10    11   ar
    26    12    14   ar
    27    15    16   ar
    28    17    18    2
    29    17    19    2
    30     7     9    1
@<TRIPOS>MOLECULE
MolPort-007-723-513 6818335 ChemDiv-E157-6081 MCULE-5170926731 PubChem-22518058 ZINC000006818335 ZINC06818335
 28 30 0 0 0
SMALL
GASTEIGER

@<TRIPOS>ATOM
      1 C           9.0091   41.4225    6.4700 C.ar    1  UNL1        0.2593
      2 C          11.3865   41.4522    6.6821 C.ar    1  UNL1        0.1896
      3 N           9.6455   41.1006    5.3231 N.ar    1  UNL1       -0.1187
      4 N          10.9717   41.1173    5.4401 N.ar    1  UNL1       -0.1239
      5 S          10.0933   41.7464    7.7173 S.2     1  UNL1       -0.0102
      6 C          13.6322   42.6375    6.7890 C.2     1  UNL1        0.2509
      7 N          12.7585   41.5378    7.0780 N.am    1  UNL1       -0.2592
      8 O          13.2116   43.6321    6.1373 O.2     1  UNL1       -0.2698
      9 H          13.1318   40.7832    7.5883 H       1  UNL1        0.1571
     10 C          15.0296   42.6047    7.2550 C.ar    1  UNL1        0.0534
     11 C          15.4337   41.6678    8.2173 C.ar    1  UNL1        0.0003
     12 C          16.7593   41.6359    8.6600 C.ar    1  UNL1       -0.0217
     13 C          17.1779   40.6392    9.6794 C.3     1  UNL1        0.0310
     14 C          17.6905   42.5409    8.1437 C.ar    1  UNL1       -0.0043
     15 C          17.2965   43.4788    7.1858 C.ar    1  UNL1       -0.0002
     16 C          15.9711   43.5102    6.7427 C.ar    1  UNL1        0.0045
     17 S           7.2659   41.4568    6.6373 S.O2    1  UNL1        0.1010
     18 O           6.7604   40.0938    7.0189 O.2     1  UNL1       -0.1477
     19 O           6.6582   41.8481    5.3190 O.2     1  UNL1       -0.1477
     20 C           7.1211   44.0067    7.6344 C.3     1  UNL1        0.1392
     21 N           6.8187   42.6008    7.8677 N.pl3   1  UNL1       -0.1870
     22 C           6.1887   42.1817    9.0952 C.ar    1  UNL1        0.0686
     23 C           4.7898   42.2152    9.2272 C.ar    1  UNL1        0.0119
     24 C           4.1758   41.8093   10.4156 C.ar    1  UNL1       -0.0206
     25 C           2.6954   41.8528   10.5392 C.3     1  UNL1        0.0311
     26 C           4.9537   41.3667   11.4878 C.ar    1  UNL1       -0.0042
     27 C           6.3450   41.3274   11.3707 C.ar    1  UNL1        0.0010
     28 C           6.9577   41.7317   10.1814 C.ar    1  UNL1        0.0161
@<TRIPOS>BOND
     1    20    21    1
     2    23    24   ar
     3    25    24    1
     4    26    27   ar
     5    28    22   ar
     6     1     5   ar
     7     2     7    1
     8     2     5   ar
     9     6    10    1
    10    11    12   ar
    11    13    12    1
    12    14    15   ar
    13    16    10   ar
    14    21    22    1
    15     3     4   ar
    16     7     6   am
    17    17    21    1
    18    17     1    1
    19    22    23   ar
    20    24    26   ar
    21    27    28   ar
    22     1     3   ar
    23     2     4   ar
    24     6     8    2
    25    10    11   ar
    26    12    14   ar
    27    15    16   ar
    28    17    18    2
    29    17    19    2
    30     7     9    1
@<TRIPOS>MOLECULE
MolPort-007-723-513 6818335 ChemDiv-E157-6081 MCULE-5170926731 PubChem-22518058 ZINC000006818335 ZINC06818335
 28 30 0 0 0
SMALL
GASTEIGER

@<TRIPOS>ATOM
      1 C           5.4878   41.9517    8.2040 C.ar    1  UNL1        0.2593
      2 C           3.8480   42.7055    9.7661 C.ar    1  UNL1        0.1896
      3 N           5.4366   43.2974    8.3074 N.ar    1  UNL1       -0.1187
      4 N           4.5218   43.7190    9.1782 N.ar    1  UNL1       -0.1239
      5 S           4.3730   41.2032    9.2204 S.2     1  UNL1       -0.0102
      6 C           2.6808   42.1105   11.9440 C.2     1  UNL1        0.2509
      7 N           2.8182   42.8822   10.7433 N.am    1  UNL1       -0.2592
      8 O           3.5024   41.1909   12.2087 O.2     1  UNL1       -0.2698
      9 H           2.1523   43.5884   10.5786 H       1  UNL1        0.1571
     10 C           1.5726   42.3928   12.8731 C.ar    1  UNL1        0.0534
     11 C           0.6140   41.4079   13.1525 C.ar    1  UNL1        0.0003
     12 C          -0.4377   41.6748   14.0340 C.ar    1  UNL1       -0.0217
     13 C          -1.4482   40.6246   14.3240 C.3     1  UNL1        0.0310
     14 C          -0.5384   42.9287   14.6425 C.ar    1  UNL1       -0.0043
     15 C           0.4113   43.9164   14.3690 C.ar    1  UNL1       -0.0002
     16 C           1.4632   43.6492   13.4880 C.ar    1  UNL1        0.0045
     17 S           6.6100   41.0992    7.1638 S.O2    1  UNL1        0.1010
     18 O           6.8933   41.9174    5.9353 O.2     1  UNL1       -0.1477
     19 O           5.9909   39.7946    6.7457 O.2     1  UNL1       -0.1477
     20 C           8.7926   39.5555    7.7729 C.3     1  UNL1        0.1392
     21 N           8.0966   40.8117    8.0182 N.pl3   1  UNL1       -0.1870
     22 C           8.6231   41.7682    8.9601 C.ar    1  UNL1        0.0686
     23 C           8.3124   43.1337    8.8399 C.ar    1  UNL1        0.0119
     24 C           8.8208   44.0636    9.7514 C.ar    1  UNL1       -0.0206
     25 C           8.4838   45.5040    9.6089 C.3     1  UNL1        0.0311
     26 C           9.6483   43.6394   10.7935 C.ar    1  UNL1       -0.0042
     27 C           9.9651   42.2855   10.9257 C.ar    1  UNL1        0.0010
     28 C           9.4547   41.3565   10.0149 C.ar    1  UNL1        0.0161
@<TRIPOS>BOND
     1    20    21    1
     2    23    24   ar
     3    25    24    1
     4    26    27   ar
     5    28    22   ar
     6     1     5   ar
     7     2     7    1
     8     2     5   ar
     9     6    10    1
    10    11    12   ar
    11    13    12    1
    12    14    15   ar
    13    16    10   ar
    14    21    22    1
    15     3     4   ar
    16     7     6   am
    17    17    21    1
    18    17     1    1
    19    22    23   ar
    20    24    26   ar
    21    27    28   ar
    22     1     3   ar
    23     2     4   ar
    24     6     8    2
    25    10    11   ar
    26    12    14   ar
    27    15    16   ar
    28    17    18    2
    29    17    19    2
    30     7     9    1
@<TRIPOS>MOLECULE
MolPort-007-723-513 6818335 ChemDiv-E157-6081 MCULE-5170926731 PubChem-22518058 ZINC000006818335 ZINC06818335
 28 30 0 0 0
SMALL
GASTEIGER

@<TRIPOS>ATOM
      1 C          11.8056   39.4124    9.9820 C.ar    1  UNL1        0.2593
      2 C          12.9283   37.3077    9.8967 C.ar    1  UNL1        0.1896
      3 N          12.8899   39.3596   10.7856 N.ar    1  UNL1       -0.1187
      4 N          13.5166   38.1858   10.7391 N.ar    1  UNL1       -0.1239
      5 S          11.5721   37.9667    9.1505 S.2     1  UNL1       -0.0102
      6 C          14.5905   35.6494    8.9236 C.2     1  UNL1        0.2509
      7 N          13.4030   35.9798    9.6563 N.am    1  UNL1       -0.2592
      8 O          15.3093   36.5605    8.4296 O.2     1  UNL1       -0.2698
      9 H          12.8732   35.2350   10.0222 H       1  UNL1        0.1571
     10 C          14.9725   34.2375    8.7461 C.ar    1  UNL1        0.0534
     11 C          16.3204   33.8823    8.5913 C.ar    1  UNL1        0.0003
     12 C          16.6837   32.5429    8.4229 C.ar    1  UNL1       -0.0217
     13 C          18.1145   32.1765    8.2601 C.3     1  UNL1        0.0310
     14 C          15.7016   31.5490    8.4079 C.ar    1  UNL1       -0.0043
     15 C          14.3561   31.8938    8.5599 C.ar    1  UNL1       -0.0002
     16 C          13.9930   33.2330    8.7289 C.ar    1  UNL1        0.0045
     17 S          10.7956   40.8325    9.8052 S.O2    1  UNL1        0.1010
     18 O          11.5551   42.0581   10.2294 O.2     1  UNL1       -0.1477
     19 O           9.5863   40.6823   10.6856 O.2     1  UNL1       -0.1477
     20 C          11.2991   41.4942    7.1925 C.3     1  UNL1        0.1392
     21 N          10.3114   41.0028    8.1440 N.pl3   1  UNL1       -0.1870
     22 C           8.9707   40.6930    7.7129 C.ar    1  UNL1        0.0686
     23 C           7.8646   41.3123    8.3201 C.ar    1  UNL1        0.0119
     24 C           6.5636   41.0145    7.9045 C.ar    1  UNL1       -0.0206
     25 C           5.4051   41.6769    8.5584 C.3     1  UNL1        0.0311
     26 C           6.3526   40.0918    6.8775 C.ar    1  UNL1       -0.0042
     27 C           7.4423   39.4691    6.2645 C.ar    1  UNL1        0.0010
     28 C           8.7427   39.7690    6.6797 C.ar    1  UNL1        0.0161
@<TRIPOS>BOND
     1    20    21    1
     2    23    24   ar
     3    25    24    1
     4    26    27   ar
     5    28    22   ar
     6     1     5   ar
     7     2     7    1
     8     2     5   ar
     9     6    10    1
    10    11    12   ar
    11    13    12    1
    12    14    15   ar
    13    16    10   ar
    14    21    22    1
    15     3     4   ar
    16     7     6   am
    17    17    21    1
    18    17     1    1
    19    22    23   ar
    20    24    26   ar
    21    27    28   ar
    22     1     3   ar
    23     2     4   ar
    24     6     8    2
    25    10    11   ar
    26    12    14   ar
    27    15    16   ar
    28    17    18    2
    29    17    19    2
    30     7     9    1
@<TRIPOS>MOLECULE
MolPort-007-723-513 6818335 ChemDiv-E157-6081 MCULE-5170926731 PubChem-22518058 ZINC000006818335 ZINC06818335
 28 30 0 0 0
SMALL
GASTEIGER

@<TRIPOS>ATOM
      1 C          15.3482   39.3791   10.3174 C.ar    1  UNL1        0.2593
      2 C          13.4163   40.5564    9.5563 C.ar    1  UNL1        0.1896
      3 N          15.5495   40.0234    9.1475 N.ar    1  UNL1       -0.1187
      4 N          14.4723   40.6800    8.7218 N.ar    1  UNL1       -0.1239
      5 S          13.7826   39.6058   10.8951 S.2     1  UNL1       -0.0102
      6 C          10.9467   40.4676    8.9623 C.2     1  UNL1        0.2509
      7 N          12.1409   41.1666    9.3382 N.am    1  UNL1       -0.2592
      8 O          10.9649   39.2175    8.7960 O.2     1  UNL1       -0.2698
      9 H          12.0783   42.1422    9.4552 H       1  UNL1        0.1571
     10 C           9.6914   41.2143    8.7681 C.ar    1  UNL1        0.0534
     11 C           9.5972   42.5568    9.1630 C.ar    1  UNL1        0.0003
     12 C           8.4067   43.2660    8.9791 C.ar    1  UNL1       -0.0217
     13 C           8.3169   44.6881    9.4004 C.3     1  UNL1        0.0310
     14 C           7.3015   42.6379    8.3989 C.ar    1  UNL1       -0.0043
     15 C           7.3857   41.3002    8.0037 C.ar    1  UNL1       -0.0002
     16 C           8.5765   40.5913    8.1872 C.ar    1  UNL1        0.0045
     17 S          16.5862   38.4555   11.1435 S.O2    1  UNL1        0.1010
     18 O          15.9532   37.5280   12.1425 O.2     1  UNL1       -0.1477
     19 O          17.4968   39.4046   11.8717 O.2     1  UNL1       -0.1477
     20 C          18.8377   37.9692    9.6564 C.3     1  UNL1        0.1392
     21 N          17.4905   37.5240    9.9871 N.pl3   1  UNL1       -0.1870
     22 C          16.9279   36.3588    9.3508 C.ar    1  UNL1        0.0686
     23 C          17.7586   35.3109    8.9176 C.ar    1  UNL1        0.0119
     24 C          17.2165   34.1798    8.3007 C.ar    1  UNL1       -0.0206
     25 C          18.1092   33.0816    7.8470 C.3     1  UNL1        0.0311
     26 C          15.8367   34.0835    8.1074 C.ar    1  UNL1       -0.0042
     27 C          14.9989   35.1168    8.5332 C.ar    1  UNL1        0.0010
     28 C          15.5418   36.2464    9.1516 C.ar    1  UNL1        0.0161
@<TRIPOS>BOND
     1    20    21    1
     2    23    24   ar
     3    25    24    1
     4    26    27   ar
     5    28    22   ar
     6     1     5   ar
     7     2     7    1
     8     2     5   ar
     9     6    10    1
    10    11    12   ar
    11    13    12    1
    12    14    15   ar
    13    16    10   ar
    14    21    22    1
    15     3     4   ar
    16     7     6   am
    17    17    21    1
    18    17     1    1
    19    22    23   ar
    20    24    26   ar
    21    27    28   ar
    22     1     3   ar
    23     2     4   ar
    24     6     8    2
    25    10    11   ar
    26    12    14   ar
    27    15    16   ar
    28    17    18    2
    29    17    19    2
    30     7     9    1
@<TRIPOS>MOLECULE
MolPort-007-723-513 6818335 ChemDiv-E157-6081 MCULE-5170926731 PubChem-22518058 ZINC000006818335 ZINC06818335
 28 30 0 0 0
SMALL
GASTEIGER

@<TRIPOS>ATOM
      1 C          11.8124   40.6815    9.3042 C.ar    1  UNL1        0.2593
      2 C           9.5932   41.1557   10.0443 C.ar    1  UNL1        0.1896
      3 N          11.5471   40.1828   10.5310 N.ar    1  UNL1       -0.1187
      4 N          10.3096   40.4471   10.9450 N.ar    1  UNL1       -0.1239
      5 S          10.4848   41.4911    8.6576 S.2     1  UNL1       -0.0102
      6 C           7.1647   41.3261    9.3141 C.2     1  UNL1        0.2509
      7 N           8.2361   41.5654   10.2366 N.am    1  UNL1       -0.2592
      8 O           7.3789   40.7130    8.2329 O.2     1  UNL1       -0.2698
      9 H           8.0210   42.0490   11.0667 H       1  UNL1        0.1571
     10 C           5.8061   41.8003    9.6306 C.ar    1  UNL1        0.0534
     11 C           5.1119   41.2779   10.7317 C.ar    1  UNL1        0.0003
     12 C           3.8229   41.7273   11.0328 C.ar    1  UNL1       -0.0217
     13 C           3.0957   41.1680   12.2017 C.3     1  UNL1        0.0310
     14 C           3.2185   42.7024   10.2350 C.ar    1  UNL1       -0.0043
     15 C           3.9020   43.2275    9.1352 C.ar    1  UNL1       -0.0002
     16 C           5.1912   42.7785    8.8345 C.ar    1  UNL1        0.0045
     17 S          13.3434   40.4707    8.4799 S.O2    1  UNL1        0.1010
     18 O          13.5037   39.0382    8.0542 O.2     1  UNL1       -0.1477
     19 O          14.4578   40.8235    9.4254 O.2     1  UNL1       -0.1477
     20 C          12.3914   41.2949    6.0443 C.3     1  UNL1        0.1392
     21 N          13.3987   41.4966    7.0773 N.pl3   1  UNL1       -0.1870
     22 C          14.4183   42.5038    6.9184 C.ar    1  UNL1        0.0686
     23 C          15.6092   42.4375    7.6620 C.ar    1  UNL1        0.0119
     24 C          16.5998   43.4121    7.5102 C.ar    1  UNL1       -0.0206
     25 C          17.8524   43.3280    8.3055 C.3     1  UNL1        0.0311
     26 C          16.4105   44.4666    6.6142 C.ar    1  UNL1       -0.0042
     27 C          15.2324   44.5450    5.8681 C.ar    1  UNL1        0.0010
     28 C          14.2434   43.5691    6.0194 C.ar    1  UNL1        0.0161
@<TRIPOS>BOND
     1    20    21    1
     2    23    24   ar
     3    25    24    1
     4    26    27   ar
     5    28    22   ar
     6     1     5   ar
     7     2     7    1
     8     2     5   ar
     9     6    10    1
    10    11    12   ar
    11    13    12    1
    12    14    15   ar
    13    16    10   ar
    14    21    22    1
    15     3     4   ar
    16     7     6   am
    17    17    21    1
    18    17     1    1
    19    22    23   ar
    20    24    26   ar
    21    27    28   ar
    22     1     3   ar
    23     2     4   ar
    24     6     8    2
    25    10    11   ar
    26    12    14   ar
    27    15    16   ar
    28    17    18    2
    29    17    19    2
    30     7     9    1
@<TRIPOS>MOLECULE
MolPort-007-723-513 6818335 ChemDiv-E157-6081 MCULE-5170926731 PubChem-22518058 ZINC000006818335 ZINC06818335
 28 30 0 0 0
SMALL
GASTEIGER

@<TRIPOS>ATOM
      1 C          11.8154   40.4645    9.9338 C.ar    1  UNL1        0.2593
      2 C           9.6029   41.1699   10.4857 C.ar    1  UNL1        0.1896
      3 N          11.5834   40.4820   11.2642 N.ar    1  UNL1       -0.1187
      4 N          10.3497   40.8758   11.5733 N.ar    1  UNL1       -0.1239
      5 S          10.4609   40.9452    9.0561 S.2     1  UNL1       -0.0102
      6 C           7.2701   41.4021    9.5041 C.2     1  UNL1        0.2509
      7 N           8.2427   41.6099   10.5371 N.am    1  UNL1       -0.2592
      8 O           7.5840   40.7916    8.4460 O.2     1  UNL1       -0.2698
      9 H           7.9517   42.0927   11.3442 H       1  UNL1        0.1571
     10 C           5.8966   41.9057    9.6794 C.ar    1  UNL1        0.0534
     11 C           5.1192   41.4803   10.7665 C.ar    1  UNL1        0.0003
     12 C           3.8160   41.9577   10.9336 C.ar    1  UNL1       -0.0217
     13 C           3.0005   41.5013   12.0889 C.3     1  UNL1        0.0310
     14 C           3.2805   42.8641   10.0147 C.ar    1  UNL1       -0.0043
     15 C           4.0472   43.2923    8.9278 C.ar    1  UNL1       -0.0002
     16 C           5.3505   42.8153    8.7611 C.ar    1  UNL1        0.0045
     17 S          13.3336   39.9624    9.2188 S.O2    1  UNL1        0.1010
     18 O          13.1950   38.5838    8.6364 O.2     1  UNL1       -0.1477
     19 O          14.3893   39.9332   10.2888 O.2     1  UNL1       -0.1477
     20 C          12.8322   41.3078    6.8830 C.3     1  UNL1        0.1392
     21 N          13.7841   41.0750    7.9610 N.pl3   1  UNL1       -0.1870
     22 C          15.0659   41.7354    7.9609 C.ar    1  UNL1        0.0686
     23 C          15.3042   42.8312    7.1135 C.ar    1  UNL1        0.0119
     24 C          16.5455   43.4739    7.1110 C.ar    1  UNL1       -0.0206
     25 C          16.7814   44.6301    6.2075 C.3     1  UNL1        0.0311
     26 C          17.5649   43.0272    7.9547 C.ar    1  UNL1       -0.0042
     27 C          17.3423   41.9398    8.8026 C.ar    1  UNL1        0.0010
     28 C          16.1002   41.2991    8.8055 C.ar    1  UNL1        0.0161
@<TRIPOS>BOND
     1    20    21    1
     2    23    24   ar
     3    25    24    1
     4    26    27   ar
     5    28    22   ar
     6     1     5   ar
     7     2     7    1
     8     2     5   ar
     9     6    10    1
    10    11    12   ar
    11    13    12    1
    12    14    15   ar
    13    16    10   ar
    14    21    22    1
    15     3     4   ar
    16     7     6   am
    17    17    21    1
    18    17     1    1
    19    22    23   ar
    20    24    26   ar
    21    27    28   ar
    22     1     3   ar
    23     2     4   ar
    24     6     8    2
    25    10    11   ar
    26    12    14   ar
    27    15    16   ar
    28    17    18    2
    29    17    19    2
    30     7     9    1
