@<TRIPOS>MOLECULE
MolPort-021-778-627 72441451 CSSS00160367955 ChemDiv-Y300-3740 MCULE-7894684116 PubChem-56921941 ZINC000072441451 ZINC72441451
 26 28 0 0 0
SMALL
GASTEIGER

@<TRIPOS>ATOM
      1 C           7.7626   41.6352    9.5296 C.2     1  UNL1        0.2495
      2 O           7.4564   42.4566    8.6231 O.2     1  UNL1       -0.2698
      3 N           6.7454   41.0355   10.3468 N.am    1  UNL1       -0.2804
      4 H           7.0512   40.4049   11.0382 H       1  UNL1        0.1552
      5 C           3.2469   41.7829   11.3931 C.ar    1  UNL1        0.0085
      6 C           2.5634   41.7077   10.1745 C.ar    1  UNL1       -0.0018
      7 C           3.2588   41.4052    9.0010 C.ar    1  UNL1        0.0010
      8 C           4.6374   41.1803    9.0447 C.ar    1  UNL1        0.0147
      9 C           5.3313   41.2581   10.2623 C.ar    1  UNL1        0.0503
     10 C           4.6272   41.5617   11.4327 C.ar    1  UNL1        0.0128
     11 C           2.5155   42.1148   12.6472 C.3     1  UNL1        0.1687
     12 C           0.5740   42.6416   13.5533 C.3     1  UNL1        0.1746
     13 O           1.2641   42.6516   12.3422 O.3     1  UNL1       -0.3463
     14 C           9.1774   41.2882    9.7533 C.ar    1  UNL1        0.0537
     15 C           9.6925   41.2189   11.0559 C.ar    1  UNL1        0.0042
     16 C          11.0343   40.8907   11.2693 C.ar    1  UNL1       -0.0028
     17 C          11.8735   40.6342   10.1810 C.ar    1  UNL1       -0.0061
     18 C          11.3658   40.6933    8.8797 C.ar    1  UNL1       -0.0028
     19 C          10.0237   41.0210    8.6667 C.ar    1  UNL1        0.0042
     20 C          13.2976   40.2611   10.4106 C.3     1  UNL1        0.0993
     21 C          13.9488   38.3356   11.5748 C.3     1  UNL1        0.1049
     22 C          14.3586   36.8663   11.4445 C.3     1  UNL1        0.1595
     23 C          14.8736   37.1123    9.2526 C.3     1  UNL1        0.1595
     24 C          14.4901   38.5944    9.2674 C.3     1  UNL1        0.1049
     25 O          15.3998   36.7443   10.5050 O.3     1  UNL1       -0.3508
     26 N          13.4613   38.8225   10.2839 N.3     1  UNL1       -0.2646
@<TRIPOS>BOND
     1    12    13    1
     2    11    13    1
     3    11     5    1
     4     6     7   ar
     5     8     9   ar
     6     9     3    1
     7     1    14    1
     8    15    16   ar
     9    17    18   ar
    10    20    17    1
    11    20    26    1
    12    21    26    1
    13    21    22    1
    14    22    25    1
    15    23    25    1
    16    23    24    1
    17    24    26    1
    18    19    14   ar
    19    10     5   ar
    20     3     1   am
    21     5     6   ar
    22     7     8   ar
    23     9    10   ar
    24     1     2    2
    25    14    15   ar
    26    16    17   ar
    27    18    19   ar
    28     3     4    1
@<TRIPOS>MOLECULE
MolPort-021-778-627 72441451 CSSS00160367955 ChemDiv-Y300-3740 MCULE-7894684116 PubChem-56921941 ZINC000072441451 ZINC72441451
 26 28 0 0 0
SMALL
GASTEIGER

@<TRIPOS>ATOM
      1 C          13.2828   39.3743   10.4925 C.2     1  UNL1        0.2495
      2 O          13.3765   39.6596   11.7174 O.2     1  UNL1       -0.2698
      3 N          12.3016   40.0181    9.6650 N.am    1  UNL1       -0.2804
      4 H          12.2789   39.7484    8.7184 H       1  UNL1        0.1552
      5 C           9.3758   41.5814   11.3645 C.ar    1  UNL1        0.0085
      6 C           9.4564   42.9028   10.9117 C.ar    1  UNL1       -0.0018
      7 C          10.4791   43.2806   10.0378 C.ar    1  UNL1        0.0010
      8 C          11.4225   42.3386    9.6185 C.ar    1  UNL1        0.0147
      9 C          11.3513   41.0121   10.0714 C.ar    1  UNL1        0.0503
     10 C          10.3240   40.6422   10.9465 C.ar    1  UNL1        0.0128
     11 C           8.2951   41.1722   12.3041 C.3     1  UNL1        0.1687
     12 C           9.1648   41.1160   14.3311 C.3     1  UNL1        0.1746
     13 O           8.3873   41.9070   13.4868 O.3     1  UNL1       -0.3463
     14 C          14.1878   38.3704    9.9052 C.ar    1  UNL1        0.0537
     15 C          15.5401   38.3328   10.2752 C.ar    1  UNL1        0.0042
     16 C          16.3996   37.3817    9.7183 C.ar    1  UNL1       -0.0028
     17 C          15.9147   36.4633    8.7823 C.ar    1  UNL1       -0.0061
     18 C          14.5662   36.4889    8.4141 C.ar    1  UNL1       -0.0028
     19 C          13.7068   37.4399    8.9717 C.ar    1  UNL1        0.0042
     20 C          16.8263   35.4347    8.2072 C.3     1  UNL1        0.0993
     21 C          16.3463   33.1654    8.5345 C.3     1  UNL1        0.1049
     22 C          15.7436   31.9051    7.9084 C.3     1  UNL1        0.1595
     23 C          15.9285   32.7494    5.8149 C.3     1  UNL1        0.1595
     24 C          16.5403   34.0546    6.3309 C.3     1  UNL1        0.1049
     25 O          16.3186   31.6806    6.6433 O.3     1  UNL1       -0.3508
     26 N          16.0524   34.3204    7.6855 N.3     1  UNL1       -0.2646
@<TRIPOS>BOND
     1    12    13    1
     2    11    13    1
     3    11     5    1
     4     6     7   ar
     5     8     9   ar
     6     9     3    1
     7     1    14    1
     8    15    16   ar
     9    17    18   ar
    10    20    17    1
    11    20    26    1
    12    21    26    1
    13    21    22    1
    14    22    25    1
    15    23    25    1
    16    23    24    1
    17    24    26    1
    18    19    14   ar
    19    10     5   ar
    20     3     1   am
    21     5     6   ar
    22     7     8   ar
    23     9    10   ar
    24     1     2    2
    25    14    15   ar
    26    16    17   ar
    27    18    19   ar
    28     3     4    1
@<TRIPOS>MOLECULE
MolPort-021-778-627 72441451 CSSS00160367955 ChemDiv-Y300-3740 MCULE-7894684116 PubChem-56921941 ZINC000072441451 ZINC72441451
 26 28 0 0 0
SMALL
GASTEIGER

@<TRIPOS>ATOM
      1 C           2.9773   41.8533   12.0339 C.2     1  UNL1        0.2495
      2 O           2.9880   40.7470   12.6393 O.2     1  UNL1       -0.2698
      3 N           2.0167   42.8644   12.3757 N.am    1  UNL1       -0.2804
      4 H           2.0602   43.7040   11.8634 H       1  UNL1        0.1552
      5 C          -1.1323   41.8684   14.1033 C.ar    1  UNL1        0.0085
      6 C          -1.0267   42.5661   15.3115 C.ar    1  UNL1       -0.0018
      7 C           0.0872   43.3729   15.5573 C.ar    1  UNL1        0.0010
      8 C           1.0968   43.4805   14.5969 C.ar    1  UNL1        0.0147
      9 C           1.0007   42.7806   13.3841 C.ar    1  UNL1        0.0503
     10 C          -0.1182   41.9747   13.1462 C.ar    1  UNL1        0.0128
     11 C          -2.3112   40.9981   13.8370 C.3     1  UNL1        0.1687
     12 C          -1.9125   38.8999   14.3906 C.3     1  UNL1        0.1746
     13 O          -2.4717   40.0808   14.8762 O.3     1  UNL1       -0.3463
     14 C           3.9589   42.1104   10.9651 C.ar    1  UNL1        0.0537
     15 C           5.2655   41.6113   11.0680 C.ar    1  UNL1        0.0042
     16 C           6.1976   41.8551   10.0554 C.ar    1  UNL1       -0.0028
     17 C           5.8320   42.6051    8.9336 C.ar    1  UNL1       -0.0061
     18 C           4.5292   43.0995    8.8196 C.ar    1  UNL1       -0.0028
     19 C           3.5971   42.8549    9.8323 C.ar    1  UNL1        0.0042
     20 C           6.8194   42.8443    7.8438 C.3     1  UNL1        0.0993
     21 C           8.5316   41.9319    6.5311 C.3     1  UNL1        0.1049
     22 C           9.1049   40.6462    5.9296 C.3     1  UNL1        0.1595
     23 C           7.1398   39.5481    6.1789 C.3     1  UNL1        0.1595
     24 C           6.4631   40.7758    6.7942 C.3     1  UNL1        0.1049
     25 O           8.0961   39.9567    5.2307 O.3     1  UNL1       -0.3508
     26 N           7.4664   41.5957    7.4763 N.3     1  UNL1       -0.2646
@<TRIPOS>BOND
     1    12    13    1
     2    11    13    1
     3    11     5    1
     4     6     7   ar
     5     8     9   ar
     6     9     3    1
     7     1    14    1
     8    15    16   ar
     9    17    18   ar
    10    20    17    1
    11    20    26    1
    12    21    26    1
    13    21    22    1
    14    22    25    1
    15    23    25    1
    16    23    24    1
    17    24    26    1
    18    19    14   ar
    19    10     5   ar
    20     3     1   am
    21     5     6   ar
    22     7     8   ar
    23     9    10   ar
    24     1     2    2
    25    14    15   ar
    26    16    17   ar
    27    18    19   ar
    28     3     4    1
@<TRIPOS>MOLECULE
MolPort-021-778-627 72441451 CSSS00160367955 ChemDiv-Y300-3740 MCULE-7894684116 PubChem-56921941 ZINC000072441451 ZINC72441451
 26 28 0 0 0
SMALL
GASTEIGER

@<TRIPOS>ATOM
      1 C           6.1421   41.6076    8.9311 C.2     1  UNL1        0.2495
      2 O           5.1356   42.1291    8.3783 O.2     1  UNL1       -0.2698
      3 N           6.0295   40.9931   10.2240 N.am    1  UNL1       -0.2804
      4 H           6.8529   40.6071   10.6011 H       1  UNL1        0.1552
      5 C           2.9427   41.9727   12.0693 C.ar    1  UNL1        0.0085
      6 C           2.5145   40.7427   12.5804 C.ar    1  UNL1       -0.0018
      7 C           3.2492   39.5834   12.3186 C.ar    1  UNL1        0.0010
      8 C           4.4105   39.6530   11.5441 C.ar    1  UNL1        0.0147
      9 C           4.8446   40.8822   11.0240 C.ar    1  UNL1        0.0503
     10 C           4.1028   42.0383   11.2909 C.ar    1  UNL1        0.0128
     11 C           2.1602   43.2118   12.3347 C.3     1  UNL1        0.1687
     12 C           0.5115   43.5684   13.7569 C.3     1  UNL1        0.1746
     13 O           0.8250   42.8896   12.5804 O.3     1  UNL1       -0.3463
     14 C           7.4460   41.6301    8.2445 C.ar    1  UNL1        0.0537
     15 C           8.4807   42.4514    8.7154 C.ar    1  UNL1        0.0042
     16 C           9.7175   42.4742    8.0648 C.ar    1  UNL1       -0.0028
     17 C           9.9279   41.6794    6.9340 C.ar    1  UNL1       -0.0061
     18 C           8.9042   40.8518    6.4629 C.ar    1  UNL1       -0.0028
     19 C           7.6676   40.8289    7.1142 C.ar    1  UNL1        0.0042
     20 C          11.2542   41.6865    6.2552 C.3     1  UNL1        0.0993
     21 C          13.4523   42.4726    6.4496 C.3     1  UNL1        0.1049
     22 C          14.6661   42.5953    7.3743 C.3     1  UNL1        0.1595
     23 C          13.9139   40.9420    8.7274 C.3     1  UNL1        0.1595
     24 C          12.6600   40.7327    7.8742 C.3     1  UNL1        0.1049
     25 O          14.9884   41.3326    7.9066 O.3     1  UNL1       -0.3508
     26 N          12.3024   41.9904    7.2153 N.3     1  UNL1       -0.2646
@<TRIPOS>BOND
     1    12    13    1
     2    11    13    1
     3    11     5    1
     4     6     7   ar
     5     8     9   ar
     6     9     3    1
     7     1    14    1
     8    15    16   ar
     9    17    18   ar
    10    20    17    1
    11    20    26    1
    12    21    26    1
    13    21    22    1
    14    22    25    1
    15    23    25    1
    16    23    24    1
    17    24    26    1
    18    19    14   ar
    19    10     5   ar
    20     3     1   am
    21     5     6   ar
    22     7     8   ar
    23     9    10   ar
    24     1     2    2
    25    14    15   ar
    26    16    17   ar
    27    18    19   ar
    28     3     4    1
@<TRIPOS>MOLECULE
MolPort-021-778-627 72441451 CSSS00160367955 ChemDiv-Y300-3740 MCULE-7894684116 PubChem-56921941 ZINC000072441451 ZINC72441451
 26 28 0 0 0
SMALL
GASTEIGER

@<TRIPOS>ATOM
      1 C           2.9566   41.8340   12.0533 C.2     1  UNL1        0.2495
      2 O           3.0108   40.7562   12.7059 O.2     1  UNL1       -0.2698
      3 N           1.9432   42.8107   12.3381 N.am    1  UNL1       -0.2804
      4 H           1.9544   43.6290   11.7908 H       1  UNL1        0.1552
      5 C          -0.2337   43.7320   15.2199 C.ar    1  UNL1        0.0085
      6 C          -1.0716   42.6152   15.3119 C.ar    1  UNL1       -0.0018
      7 C          -0.9162   41.5500   14.4211 C.ar    1  UNL1        0.0010
      8 C           0.0748   41.6019   13.4371 C.ar    1  UNL1        0.0147
      9 C           0.9166   42.7203   13.3353 C.ar    1  UNL1        0.0503
     10 C           0.7540   43.7827   14.2313 C.ar    1  UNL1        0.0128
     11 C          -0.3989   44.8764   16.1586 C.3     1  UNL1        0.1687
     12 C           0.6520   46.7812   16.5269 C.3     1  UNL1        0.1746
     13 O           0.8493   45.4016   16.4952 O.3     1  UNL1       -0.3463
     14 C           3.9414   42.0931   10.9880 C.ar    1  UNL1        0.0537
     15 C           5.2428   41.5796   11.0860 C.ar    1  UNL1        0.0042
     16 C           6.1780   41.8253   10.0767 C.ar    1  UNL1       -0.0028
     17 C           5.8206   42.5915    8.9632 C.ar    1  UNL1       -0.0061
     18 C           4.5230   43.1002    8.8540 C.ar    1  UNL1       -0.0028
     19 C           3.5878   42.8539    9.8634 C.ar    1  UNL1        0.0042
     20 C           6.8111   42.8328    7.8766 C.3     1  UNL1        0.0993
     21 C           8.5331   41.9217    6.5760 C.3     1  UNL1        0.1049
     22 C           9.1019   40.6390    5.9638 C.3     1  UNL1        0.1595
     23 C           7.1219   39.5584    6.1674 C.3     1  UNL1        0.1595
     24 C           6.4490   40.7841    6.7909 C.3     1  UNL1        0.1049
     25 O           8.0966   39.9708    5.2397 O.3     1  UNL1       -0.3508
     26 N           7.4504   41.5829    7.5000 N.3     1  UNL1       -0.2646
@<TRIPOS>BOND
     1    12    13    1
     2    11    13    1
     3    11     5    1
     4     6     7   ar
     5     8     9   ar
     6     9     3    1
     7     1    14    1
     8    15    16   ar
     9    17    18   ar
    10    20    17    1
    11    20    26    1
    12    21    26    1
    13    21    22    1
    14    22    25    1
    15    23    25    1
    16    23    24    1
    17    24    26    1
    18    19    14   ar
    19    10     5   ar
    20     3     1   am
    21     5     6   ar
    22     7     8   ar
    23     9    10   ar
    24     1     2    2
    25    14    15   ar
    26    16    17   ar
    27    18    19   ar
    28     3     4    1
@<TRIPOS>MOLECULE
MolPort-021-778-627 72441451 CSSS00160367955 ChemDiv-Y300-3740 MCULE-7894684116 PubChem-56921941 ZINC000072441451 ZINC72441451
 26 28 0 0 0
SMALL
GASTEIGER

@<TRIPOS>ATOM
      1 C           8.3395   42.0406    7.9364 C.2     1  UNL1        0.2495
      2 O           7.6790   40.9700    8.0261 O.2     1  UNL1       -0.2698
      3 N           7.6863   43.3142    8.0506 N.am    1  UNL1       -0.2804
      4 H           8.2585   44.1112    7.9686 H       1  UNL1        0.1552
      5 C           4.2635   42.9899    9.4900 C.ar    1  UNL1        0.0085
      6 C           3.5558   43.9514    8.7602 C.ar    1  UNL1       -0.0018
      7 C           4.2095   44.7090    7.7850 C.ar    1  UNL1        0.0010
      8 C           5.5707   44.5075    7.5408 C.ar    1  UNL1        0.0147
      9 C           6.2889   43.5482    8.2713 C.ar    1  UNL1        0.0503
     10 C           5.6266   42.7939    9.2462 C.ar    1  UNL1        0.0128
     11 C           3.5772   42.1850   10.5384 C.3     1  UNL1        0.1687
     12 C           4.1238   40.2995   11.5455 C.3     1  UNL1        0.1746
     13 O           4.5184   41.6291   11.4057 O.3     1  UNL1       -0.3463
     14 C           9.7949   41.9841    7.7113 C.ar    1  UNL1        0.0537
     15 C          10.6852   42.2673    8.7573 C.ar    1  UNL1        0.0042
     16 C          12.0657   42.2148    8.5449 C.ar    1  UNL1       -0.0028
     17 C          12.5673   41.8838    7.2825 C.ar    1  UNL1       -0.0061
     18 C          11.6865   41.5923    6.2366 C.ar    1  UNL1       -0.0028
     19 C          10.3060   41.6443    6.4496 C.ar    1  UNL1        0.0042
     20 C          14.0388   41.8049    7.0633 C.3     1  UNL1        0.0993
     21 C          14.4286   43.7603    5.8339 C.3     1  UNL1        0.1049
     22 C          15.2192   45.0698    5.7724 C.3     1  UNL1        0.1595
     23 C          16.7688   44.3063    7.2372 C.3     1  UNL1        0.1595
     24 C          16.0593   42.9568    7.3764 C.3     1  UNL1        0.1049
     25 O          16.5923   44.8046    5.9329 O.3     1  UNL1       -0.3508
     26 N          14.6249   43.1327    7.1410 N.3     1  UNL1       -0.2646
@<TRIPOS>BOND
     1    12    13    1
     2    11    13    1
     3    11     5    1
     4     6     7   ar
     5     8     9   ar
     6     9     3    1
     7     1    14    1
     8    15    16   ar
     9    17    18   ar
    10    20    17    1
    11    20    26    1
    12    21    26    1
    13    21    22    1
    14    22    25    1
    15    23    25    1
    16    23    24    1
    17    24    26    1
    18    19    14   ar
    19    10     5   ar
    20     3     1   am
    21     5     6   ar
    22     7     8   ar
    23     9    10   ar
    24     1     2    2
    25    14    15   ar
    26    16    17   ar
    27    18    19   ar
    28     3     4    1
@<TRIPOS>MOLECULE
MolPort-021-778-627 72441451 CSSS00160367955 ChemDiv-Y300-3740 MCULE-7894684116 PubChem-56921941 ZINC000072441451 ZINC72441451
 26 28 0 0 0
SMALL
GASTEIGER

@<TRIPOS>ATOM
      1 C           8.5192   41.2506    8.5075 C.2     1  UNL1        0.2495
      2 O           7.7808   40.4896    7.8246 O.2     1  UNL1       -0.2698
      3 N           7.9719   42.0263    9.5848 N.am    1  UNL1       -0.2804
      4 H           8.6011   42.6021   10.0765 H       1  UNL1        0.1552
      5 C           4.3313   42.8222    9.6592 C.ar    1  UNL1        0.0085
      6 C           3.9152   42.1434   10.8097 C.ar    1  UNL1       -0.0018
      7 C           4.8406   41.4217   11.5682 C.ar    1  UNL1        0.0010
      8 C           6.1811   41.3764   11.1755 C.ar    1  UNL1        0.0147
      9 C           6.6059   42.0510   10.0204 C.ar    1  UNL1        0.0503
     10 C           5.6726   42.7712    9.2666 C.ar    1  UNL1        0.0128
     11 C           3.3500   43.5855    8.8391 C.3     1  UNL1        0.1687
     12 C           4.1131   45.0889    7.4160 C.3     1  UNL1        0.1746
     13 O           3.7406   44.9220    8.7488 O.3     1  UNL1       -0.3463
     14 C           9.9566   41.3454    8.1963 C.ar    1  UNL1        0.0537
     15 C          10.8395   41.9492    9.1034 C.ar    1  UNL1        0.0042
     16 C          12.2029   42.0405    8.8091 C.ar    1  UNL1       -0.0028
     17 C          12.6937   41.5333    7.6023 C.ar    1  UNL1       -0.0061
     18 C          11.8213   40.9228    6.6962 C.ar    1  UNL1       -0.0028
     19 C          10.4580   40.8311    6.9911 C.ar    1  UNL1        0.0042
     20 C          14.1506   41.6098    7.3001 C.3     1  UNL1        0.0993
     21 C          14.2190   43.4718    5.8804 C.3     1  UNL1        0.1049
     22 C          14.8344   44.8543    5.6493 C.3     1  UNL1        0.1595
     23 C          16.5515   44.4238    7.0623 C.3     1  UNL1        0.1595
     24 C          16.0260   43.0188    7.3682 C.3     1  UNL1        0.1049
     25 O          16.2370   44.7711    5.7351 O.3     1  UNL1       -0.3508
     26 N          14.5695   42.9993    7.2202 N.3     1  UNL1       -0.2646
@<TRIPOS>BOND
     1    12    13    1
     2    11    13    1
     3    11     5    1
     4     6     7   ar
     5     8     9   ar
     6     9     3    1
     7     1    14    1
     8    15    16   ar
     9    17    18   ar
    10    20    17    1
    11    20    26    1
    12    21    26    1
    13    21    22    1
    14    22    25    1
    15    23    25    1
    16    23    24    1
    17    24    26    1
    18    19    14   ar
    19    10     5   ar
    20     3     1   am
    21     5     6   ar
    22     7     8   ar
    23     9    10   ar
    24     1     2    2
    25    14    15   ar
    26    16    17   ar
    27    18    19   ar
    28     3     4    1
@<TRIPOS>MOLECULE
MolPort-021-778-627 72441451 CSSS00160367955 ChemDiv-Y300-3740 MCULE-7894684116 PubChem-56921941 ZINC000072441451 ZINC72441451
 26 28 0 0 0
SMALL
GASTEIGER

@<TRIPOS>ATOM
      1 C          15.0603   36.6680    8.8090 C.2     1  UNL1        0.2495
      2 O          15.9001   37.2271    9.5657 O.2     1  UNL1       -0.2698
      3 N          13.7257   37.1845    8.6905 N.am    1  UNL1       -0.2804
      4 H          13.1185   36.7003    8.0854 H       1  UNL1        0.1552
      5 C          11.8669   40.3682    9.2402 C.ar    1  UNL1        0.0085
      6 C          12.0891   40.5955   10.6028 C.ar    1  UNL1       -0.0018
      7 C          12.8592   39.6962   11.3447 C.ar    1  UNL1        0.0010
      8 C          13.4053   38.5686   10.7255 C.ar    1  UNL1        0.0147
      9 C          13.1837   38.3308    9.3601 C.ar    1  UNL1        0.0503
     10 C          12.4111   39.2364    8.6246 C.ar    1  UNL1        0.0128
     11 C          11.0389   41.3160    8.4440 C.3     1  UNL1        0.1687
     12 C           9.0387   41.6393    7.5706 C.3     1  UNL1        0.1746
     13 O           9.6837   41.0694    8.6670 O.3     1  UNL1       -0.3463
     14 C          15.4516   35.4732    8.0402 C.ar    1  UNL1        0.0537
     15 C          15.9798   35.6040    6.7475 C.ar    1  UNL1        0.0042
     16 C          16.3507   34.4715    6.0171 C.ar    1  UNL1       -0.0028
     17 C          16.1912   33.1980    6.5716 C.ar    1  UNL1       -0.0061
     18 C          15.6729   33.0595    7.8627 C.ar    1  UNL1       -0.0028
     19 C          15.3027   34.1923    8.5931 C.ar    1  UNL1        0.0042
     20 C          16.6089   31.9930    5.8014 C.3     1  UNL1        0.0993
     21 C          16.0900   31.6969    3.5364 C.3     1  UNL1        0.1049
     22 C          16.5878   31.8727    2.0995 C.3     1  UNL1        0.1595
     23 C          18.7447   32.0321    2.7721 C.3     1  UNL1        0.1595
     24 C          18.3603   31.8654    4.2447 C.3     1  UNL1        0.1049
     25 O          17.8627   31.2916    1.9631 O.3     1  UNL1       -0.3508
     26 N          17.0041   32.3752    4.4559 N.3     1  UNL1       -0.2646
@<TRIPOS>BOND
     1    12    13    1
     2    11    13    1
     3    11     5    1
     4     6     7   ar
     5     8     9   ar
     6     9     3    1
     7     1    14    1
     8    15    16   ar
     9    17    18   ar
    10    20    17    1
    11    20    26    1
    12    21    26    1
    13    21    22    1
    14    22    25    1
    15    23    25    1
    16    23    24    1
    17    24    26    1
    18    19    14   ar
    19    10     5   ar
    20     3     1   am
    21     5     6   ar
    22     7     8   ar
    23     9    10   ar
    24     1     2    2
    25    14    15   ar
    26    16    17   ar
    27    18    19   ar
    28     3     4    1
@<TRIPOS>MOLECULE
MolPort-021-778-627 72441451 CSSS00160367955 ChemDiv-Y300-3740 MCULE-7894684116 PubChem-56921941 ZINC000072441451 ZINC72441451
 26 28 0 0 0
SMALL
GASTEIGER

@<TRIPOS>ATOM
      1 C           8.4295   41.2715    9.3940 C.2     1  UNL1        0.2495
      2 O           7.9473   41.4208    8.2383 O.2     1  UNL1       -0.2698
      3 N           7.5828   41.3297   10.5524 N.am    1  UNL1       -0.2804
      4 H           8.0220   41.2081   11.4251 H       1  UNL1        0.1552
      5 C           4.2431   42.7541    9.7096 C.ar    1  UNL1        0.0085
      6 C           3.4008   42.0238   10.5552 C.ar    1  UNL1       -0.0018
      7 C           3.9369   41.0584   11.4113 C.ar    1  UNL1        0.0010
      8 C           5.3141   40.8211   11.4207 C.ar    1  UNL1        0.0147
      9 C           6.1654   41.5462   10.5725 C.ar    1  UNL1        0.0503
     10 C           5.6203   42.5110    9.7182 C.ar    1  UNL1        0.0128
     11 C           3.6793   43.7779    8.7865 C.3     1  UNL1        0.1687
     12 C           5.1137   44.6117    7.3322 C.3     1  UNL1        0.1746
     13 O           4.5943   44.8164    8.6094 O.3     1  UNL1       -0.3463
     14 C           9.8751   41.0363    9.5575 C.ar    1  UNL1        0.0537
     15 C          10.7216   41.0225    8.4394 C.ar    1  UNL1        0.0042
     16 C          12.0927   40.7988    8.5930 C.ar    1  UNL1       -0.0028
     17 C          12.6279   40.5815    9.8662 C.ar    1  UNL1       -0.0061
     18 C          11.7920   40.6016   10.9868 C.ar    1  UNL1       -0.0028
     19 C          10.4209   40.8260   10.8328 C.ar    1  UNL1        0.0042
     20 C          14.0930   40.3668   10.0313 C.3     1  UNL1        0.0993
     21 C          14.0937   38.6316   11.6049 C.3     1  UNL1        0.1049
     22 C          14.5811   37.2132   11.9117 C.3     1  UNL1        0.1595
     23 C          16.2021   37.3338   10.3345 C.3     1  UNL1        0.1595
     24 C          15.7995   38.7584    9.9441 C.3     1  UNL1        0.1049
     25 O          15.9717   37.1335   11.7083 O.3     1  UNL1       -0.3508
     26 N          14.3716   38.9508   10.2042 N.3     1  UNL1       -0.2646
@<TRIPOS>BOND
     1    12    13    1
     2    11    13    1
     3    11     5    1
     4     6     7   ar
     5     8     9   ar
     6     9     3    1
     7     1    14    1
     8    15    16   ar
     9    17    18   ar
    10    20    17    1
    11    20    26    1
    12    21    26    1
    13    21    22    1
    14    22    25    1
    15    23    25    1
    16    23    24    1
    17    24    26    1
    18    19    14   ar
    19    10     5   ar
    20     3     1   am
    21     5     6   ar
    22     7     8   ar
    23     9    10   ar
    24     1     2    2
    25    14    15   ar
    26    16    17   ar
    27    18    19   ar
    28     3     4    1
@<TRIPOS>MOLECULE
MolPort-021-778-627 72441451 CSSS00160367955 ChemDiv-Y300-3740 MCULE-7894684116 PubChem-56921941 ZINC000072441451 ZINC72441451
 26 28 0 0 0
SMALL
GASTEIGER

@<TRIPOS>ATOM
      1 C           8.4199   42.2360    7.4754 C.2     1  UNL1        0.2495
      2 O           7.7904   41.7013    6.5223 O.2     1  UNL1       -0.2698
      3 N           7.7264   43.0099    8.4664 N.am    1  UNL1       -0.2804
      4 H           8.2763   43.4024    9.1824 H       1  UNL1        0.1552
      5 C           4.1065   42.5580    9.2315 C.ar    1  UNL1        0.0085
      6 C           3.5517   43.7160    8.6757 C.ar    1  UNL1       -0.0018
      7 C           4.3748   44.6501    8.0415 C.ar    1  UNL1        0.0010
      8 C           5.7525   44.4282    7.9649 C.ar    1  UNL1        0.0147
      9 C           6.3176   43.2714    8.5236 C.ar    1  UNL1        0.0503
     10 C           5.4861   42.3412    9.1570 C.ar    1  UNL1        0.0128
     11 C           3.2381   41.5619    9.9184 C.3     1  UNL1        0.1687
     12 C           4.0211   40.2881   11.5408 C.3     1  UNL1        0.1746
     13 O           3.9527   40.3864   10.1520 O.3     1  UNL1       -0.3463
     14 C           9.8805   42.0660    7.5725 C.ar    1  UNL1        0.0537
     15 C          10.6210   41.6489    6.4568 C.ar    1  UNL1        0.0042
     16 C          12.0063   41.4866    6.5478 C.ar    1  UNL1       -0.0028
     17 C          12.6619   41.7349    7.7574 C.ar    1  UNL1       -0.0061
     18 C          11.9321   42.1587    8.8721 C.ar    1  UNL1       -0.0028
     19 C          10.5468   42.3215    8.7805 C.ar    1  UNL1        0.0042
     20 C          14.1415   41.5845    7.8469 C.3     1  UNL1        0.0993
     21 C          16.0972   42.7756    7.3529 C.3     1  UNL1        0.1049
     22 C          16.7364   43.8144    6.4278 C.3     1  UNL1        0.1595
     23 C          14.7169   44.5969    5.7650 C.3     1  UNL1        0.1595
     24 C          13.9713   43.5987    6.6548 C.3     1  UNL1        0.1049
     25 O          15.9293   44.9666    6.3767 O.3     1  UNL1       -0.3508
     26 N          14.7862   42.3944    6.8265 N.3     1  UNL1       -0.2646
@<TRIPOS>BOND
     1    12    13    1
     2    11    13    1
     3    11     5    1
     4     6     7   ar
     5     8     9   ar
     6     9     3    1
     7     1    14    1
     8    15    16   ar
     9    17    18   ar
    10    20    17    1
    11    20    26    1
    12    21    26    1
    13    21    22    1
    14    22    25    1
    15    23    25    1
    16    23    24    1
    17    24    26    1
    18    19    14   ar
    19    10     5   ar
    20     3     1   am
    21     5     6   ar
    22     7     8   ar
    23     9    10   ar
    24     1     2    2
    25    14    15   ar
    26    16    17   ar
    27    18    19   ar
    28     3     4    1
