@<TRIPOS>MOLECULE
MolPort-039-225-444 299801012 CSSS00159918082 MCULE-9136281289 PubChem-118789576 ZINC000299801012
 30 33 0 0 0
SMALL
GASTEIGER

@<TRIPOS>ATOM
      1 O          12.5086   38.7445    8.7446 O.3     1  UNL1       -0.4739
      2 O          15.6858   34.7195    8.3428 O.2     1  UNL1       -0.2522
      3 C          11.4595   35.5096   11.2362 C.ar    1  UNL1        0.0069
      4 C          12.8033   35.6939   10.8993 C.ar    1  UNL1       -0.0015
      5 C          13.1909   36.7555   10.0751 C.ar    1  UNL1        0.0315
      6 C          12.2130   37.6574    9.5841 C.ar    1  UNL1        0.1362
      7 C          13.8172   39.1506    8.3536 C.3     1  UNL1        0.2268
      8 C          14.4872   38.0705    7.5105 C.3     1  UNL1        0.1425
      9 C          14.6448   36.8882    9.7567 C.3     1  UNL1        0.1248
     10 C          15.3819   35.7352    7.6594 C.2     1  UNL1        0.3080
     11 C          10.8719   37.4601    9.9328 C.ar    1  UNL1        0.0364
     12 C          10.4954   36.3956   10.7544 C.ar    1  UNL1        0.0012
     13 N          14.8499   36.8983    8.3097 N.am    1  UNL1       -0.2559
     14 N          15.5645   35.7353    6.2349 N.am    1  UNL1       -0.2680
     15 H          15.3234   36.5637    5.7606 H       1  UNL1        0.1564
     16 C          16.0605   34.6571    5.4297 C.ar    1  UNL1        0.0546
     17 C          16.5628   34.9452    4.1562 C.ar    1  UNL1        0.0516
     18 C          17.0528   33.9262    3.3330 C.ar    1  UNL1        0.1396
     19 C          17.0406   32.6007    3.7956 C.ar    1  UNL1        0.0370
     20 C          16.5410   32.3039    5.0657 C.ar    1  UNL1        0.0044
     21 C          16.0523   33.3284    5.8797 C.ar    1  UNL1        0.0149
     22 O          17.5477   34.2579    2.0672 O.3     1  UNL1       -0.4791
     23 C          18.5819   33.5261    1.4176 C.3     1  UNL1        0.1659
     24 C          19.5395   34.4994    0.7524 C.3     1  UNL1        0.0435
     25 C          19.6300   34.0943   -0.7032 C.3     1  UNL1        0.0038
     26 C          18.3520   33.3450   -0.9907 C.3     1  UNL1        0.0038
     27 C          17.9951   32.6640    0.3107 C.3     1  UNL1        0.0435
     28 O          10.0427   34.8004   12.9901 O.3     1  UNL1       -0.3772
     29 C          11.0518   34.3835   12.1214 C.3     1  UNL1        0.1636
     30 H           9.7833   34.0615   13.5626 H       1  UNL1        0.2109
@<TRIPOS>BOND
     1    29    28    1
     2    29     3    1
     3     4     5   ar
     4     6     1    1
     5     6    11   ar
     6     7     1    1
     7     7     8    1
     8     8    13    1
     9     9    13    1
    10     9     5    1
    11    10    14   am
    12    17    18   ar
    13    18    22    1
    14    23    22    1
    15    23    24    1
    16    24    25    1
    17    25    26    1
    18    26    27    1
    19    27    23    1
    20    19    20   ar
    21    21    16   ar
    22    12     3   ar
    23    13    10   am
    24    14    16    1
    25     3     4   ar
    26     5     6   ar
    27    10     2    2
    28    16    17   ar
    29    18    19   ar
    30    20    21   ar
    31    11    12   ar
    32    28    30    1
    33    14    15    1
@<TRIPOS>MOLECULE
MolPort-039-225-444 299801012 CSSS00159918082 MCULE-9136281289 PubChem-118789576 ZINC000299801012
 30 33 0 0 0
SMALL
GASTEIGER

@<TRIPOS>ATOM
      1 O           5.7421   43.4505    8.7888 O.3     1  UNL1       -0.4739
      2 O           3.4253   40.9287   12.6265 O.2     1  UNL1       -0.2522
      3 C           8.4270   41.8083   11.5937 C.ar    1  UNL1        0.0069
      4 C           7.1943   41.1812   11.3920 C.ar    1  UNL1       -0.0015
      5 C           6.2769   41.6957   10.4701 C.ar    1  UNL1        0.0315
      6 C           6.6037   42.8589    9.7276 C.ar    1  UNL1        0.1362
      7 C           4.4827   42.9236    8.3806 C.3     1  UNL1        0.2268
      8 C           3.5039   42.9003    9.5500 C.3     1  UNL1        0.1425
      9 C           4.9791   40.9728   10.3093 C.3     1  UNL1        0.1248
     10 C           3.1166   41.7977   11.7660 C.2     1  UNL1        0.3080
     11 C           7.8432   43.4735    9.9399 C.ar    1  UNL1        0.0364
     12 C           8.7509   42.9527   10.8644 C.ar    1  UNL1        0.0012
     13 N           3.8582   41.8817   10.5406 N.am    1  UNL1       -0.2559
     14 N           2.0282   42.7038   12.0046 N.am    1  UNL1       -0.2680
     15 H           1.8270   43.3481   11.2878 H       1  UNL1        0.1564
     16 C           1.2032   42.7701   13.1758 C.ar    1  UNL1        0.0546
     17 C           1.2940   43.8977   13.9989 C.ar    1  UNL1        0.0516
     18 C           0.5130   44.0049   15.1542 C.ar    1  UNL1        0.1396
     19 C          -0.3727   42.9674   15.4861 C.ar    1  UNL1        0.0370
     20 C          -0.4698   41.8380   14.6702 C.ar    1  UNL1        0.0044
     21 C           0.3156   41.7395   13.5194 C.ar    1  UNL1        0.0149
     22 O           0.6334   45.1503   15.9486 O.3     1  UNL1       -0.4791
     23 C           1.8374   45.9024   16.0557 C.3     1  UNL1        0.1659
     24 C           2.7185   45.2838   17.1271 C.3     1  UNL1        0.0435
     25 C           3.0508   46.3876   18.1079 C.3     1  UNL1        0.0038
     26 C           1.9432   47.4019   17.9599 C.3     1  UNL1        0.0038
     27 C           1.5283   47.3208   16.5086 C.3     1  UNL1        0.0435
     28 O          10.6446   41.0746   11.9544 O.3     1  UNL1       -0.3772
     29 C           9.4049   41.2522   12.5695 C.3     1  UNL1        0.1636
     30 H          11.2751   40.7124   12.5964 H       1  UNL1        0.2109
@<TRIPOS>BOND
     1    29    28    1
     2    29     3    1
     3     4     5   ar
     4     6     1    1
     5     6    11   ar
     6     7     1    1
     7     7     8    1
     8     8    13    1
     9     9    13    1
    10     9     5    1
    11    10    14   am
    12    17    18   ar
    13    18    22    1
    14    23    22    1
    15    23    24    1
    16    24    25    1
    17    25    26    1
    18    26    27    1
    19    27    23    1
    20    19    20   ar
    21    21    16   ar
    22    12     3   ar
    23    13    10   am
    24    14    16    1
    25     3     4   ar
    26     5     6   ar
    27    10     2    2
    28    16    17   ar
    29    18    19   ar
    30    20    21   ar
    31    11    12   ar
    32    28    30    1
    33    14    15    1
@<TRIPOS>MOLECULE
MolPort-039-225-444 299801012 CSSS00159918082 MCULE-9136281289 PubChem-118789576 ZINC000299801012
 30 33 0 0 0
SMALL
GASTEIGER

@<TRIPOS>ATOM
      1 O          13.2246   34.5287   10.0979 O.3     1  UNL1       -0.4739
      2 O          13.2058   39.3659    8.3491 O.2     1  UNL1       -0.2522
      3 C          16.2981   35.3346    7.3271 C.ar    1  UNL1        0.0069
      4 C          15.8160   36.3777    8.1227 C.ar    1  UNL1       -0.0015
      5 C          14.7972   36.1500    9.0535 C.ar    1  UNL1        0.0315
      6 C          14.2544   34.8477    9.1971 C.ar    1  UNL1        0.1362
      7 C          12.6562   35.4245   11.0491 C.3     1  UNL1        0.2268
      8 C          11.9453   36.5766   10.3465 C.3     1  UNL1        0.1425
      9 C          14.3318   37.3134    9.8675 C.3     1  UNL1        0.1248
     10 C          12.3949   38.5758    8.9051 C.2     1  UNL1        0.3080
     11 C          14.7500   33.8138    8.3943 C.ar    1  UNL1        0.0364
     12 C          15.7659   34.0525    7.4665 C.ar    1  UNL1        0.0012
     13 N          12.8904   37.4986    9.7131 N.am    1  UNL1       -0.2559
     14 N          10.9792   38.7468    8.7347 N.am    1  UNL1       -0.2680
     15 H          10.3988   38.1072    9.2072 H       1  UNL1        0.1564
     16 C          10.3209   39.7502    7.9494 C.ar    1  UNL1        0.0546
     17 C           9.7533   39.3804    6.7253 C.ar    1  UNL1        0.0516
     18 C           9.1054   40.3250    5.9227 C.ar    1  UNL1        0.1396
     19 C           9.0242   41.6579    6.3560 C.ar    1  UNL1        0.0370
     20 C           9.5880   42.0360    7.5766 C.ar    1  UNL1        0.0044
     21 C          10.2345   41.0856    8.3703 C.ar    1  UNL1        0.0149
     22 O           8.5499   39.9128    4.7066 O.3     1  UNL1       -0.4791
     23 C           9.3293   39.6265    3.5501 C.3     1  UNL1        0.1659
     24 C           9.1674   38.1599    3.1900 C.3     1  UNL1        0.0435
     25 C          10.5608   37.5729    3.1195 C.3     1  UNL1        0.0038
     26 C          11.4166   38.4680    3.9820 C.3     1  UNL1        0.0038
     27 C          10.8046   39.8437    3.8481 C.3     1  UNL1        0.0435
     28 O          18.3548   34.5767    6.4429 O.3     1  UNL1       -0.3772
     29 C          17.3893   35.5790    6.3436 C.3     1  UNL1        0.1636
     30 H          19.0613   34.7434    5.7995 H       1  UNL1        0.2109
@<TRIPOS>BOND
     1    29    28    1
     2    29     3    1
     3     4     5   ar
     4     6     1    1
     5     6    11   ar
     6     7     1    1
     7     7     8    1
     8     8    13    1
     9     9    13    1
    10     9     5    1
    11    10    14   am
    12    17    18   ar
    13    18    22    1
    14    23    22    1
    15    23    24    1
    16    24    25    1
    17    25    26    1
    18    26    27    1
    19    27    23    1
    20    19    20   ar
    21    21    16   ar
    22    12     3   ar
    23    13    10   am
    24    14    16    1
    25     3     4   ar
    26     5     6   ar
    27    10     2    2
    28    16    17   ar
    29    18    19   ar
    30    20    21   ar
    31    11    12   ar
    32    28    30    1
    33    14    15    1
@<TRIPOS>MOLECULE
MolPort-039-225-444 299801012 CSSS00159918082 MCULE-9136281289 PubChem-118789576 ZINC000299801012
 30 33 0 0 0
SMALL
GASTEIGER

@<TRIPOS>ATOM
      1 O          14.0835   34.8995    9.1501 O.3     1  UNL1       -0.4739
      2 O          14.1136   39.6854   11.0343 O.2     1  UNL1       -0.2522
      3 C          17.9082   36.6723    9.1959 C.ar    1  UNL1        0.0069
      4 C          16.9700   37.0664   10.1540 C.ar    1  UNL1       -0.0015
      5 C          15.6907   36.5013   10.1715 C.ar    1  UNL1        0.0315
      6 C          15.3453   35.5139    9.2139 C.ar    1  UNL1        0.1362
      7 C          13.0221   35.1004   10.0793 C.3     1  UNL1        0.2268
      8 C          12.5337   36.5446   10.0355 C.3     1  UNL1        0.1425
      9 C          14.7409   36.9732   11.2240 C.3     1  UNL1        0.1248
     10 C          13.2701   38.8838   10.5477 C.2     1  UNL1        0.3080
     11 C          16.2971   35.1288    8.2627 C.ar    1  UNL1        0.0364
     12 C          17.5709   35.7010    8.2528 C.ar    1  UNL1        0.0012
     13 N          13.5101   37.4707   10.6128 N.am    1  UNL1       -0.2559
     14 N          12.0713   39.3758    9.9284 N.am    1  UNL1       -0.2680
     15 H          11.4455   38.6993    9.5821 H       1  UNL1        0.1564
     16 C          11.6888   40.7478    9.7610 C.ar    1  UNL1        0.0546
     17 C          12.3272   41.5081    8.7752 C.ar    1  UNL1        0.0516
     18 C          11.9912   42.8513    8.5782 C.ar    1  UNL1        0.1396
     19 C          10.9993   43.4384    9.3798 C.ar    1  UNL1        0.0370
     20 C          10.3568   42.6870   10.3663 C.ar    1  UNL1        0.0044
     21 C          10.7005   41.3466   10.5565 C.ar    1  UNL1        0.0149
     22 O          12.6529   43.5751    7.5803 O.3     1  UNL1       -0.4791
     23 C          13.6103   42.9951    6.7006 C.3     1  UNL1        0.1659
     24 C          14.8705   42.6660    7.4818 C.3     1  UNL1        0.0435
     25 C          16.0171   43.3449    6.7639 C.3     1  UNL1        0.0038
     26 C          15.3914   44.4849    5.9981 C.3     1  UNL1        0.0038
     27 C          14.0090   43.9975    5.6288 C.3     1  UNL1        0.0435
     28 O          19.6302   37.6214    7.8844 O.3     1  UNL1       -0.3772
     29 C          19.2723   37.2696    9.1863 C.3     1  UNL1        0.1636
     30 H          20.5193   38.0093    7.8871 H       1  UNL1        0.2109
@<TRIPOS>BOND
     1    29    28    1
     2    29     3    1
     3     4     5   ar
     4     6     1    1
     5     6    11   ar
     6     7     1    1
     7     7     8    1
     8     8    13    1
     9     9    13    1
    10     9     5    1
    11    10    14   am
    12    17    18   ar
    13    18    22    1
    14    23    22    1
    15    23    24    1
    16    24    25    1
    17    25    26    1
    18    26    27    1
    19    27    23    1
    20    19    20   ar
    21    21    16   ar
    22    12     3   ar
    23    13    10   am
    24    14    16    1
    25     3     4   ar
    26     5     6   ar
    27    10     2    2
    28    16    17   ar
    29    18    19   ar
    30    20    21   ar
    31    11    12   ar
    32    28    30    1
    33    14    15    1
@<TRIPOS>MOLECULE
MolPort-039-225-444 299801012 CSSS00159918082 MCULE-9136281289 PubChem-118789576 ZINC000299801012
 30 33 0 0 0
SMALL
GASTEIGER

@<TRIPOS>ATOM
      1 O           4.5360   43.7224    7.6440 O.3     1  UNL1       -0.4739
      2 O           8.9013   42.2709    9.9447 O.2     1  UNL1       -0.2522
      3 C           3.9282   41.3546   11.0786 C.ar    1  UNL1        0.0069
      4 C           5.0726   42.1533   11.0033 C.ar    1  UNL1       -0.0015
      5 C           5.3095   42.9528    9.8804 C.ar    1  UNL1        0.0315
      6 C           4.3762   42.9594    8.8127 C.ar    1  UNL1        0.1362
      7 C           5.5851   44.6575    7.4084 C.3     1  UNL1        0.2268
      8 C           6.9360   43.9511    7.3615 C.3     1  UNL1        0.1425
      9 C           6.5547   43.7787    9.8701 C.3     1  UNL1        0.1248
     10 C           8.5436   42.6878    8.8093 C.2     1  UNL1        0.3080
     11 C           3.2341   42.1555    8.9048 C.ar    1  UNL1        0.0364
     12 C           3.0084   41.3593   10.0295 C.ar    1  UNL1        0.0012
     13 N           7.3538   43.4797    8.6835 N.am    1  UNL1       -0.2559
     14 N           9.3190   42.3749    7.6416 N.am    1  UNL1       -0.2680
     15 H           8.9959   42.7429    6.7875 H       1  UNL1        0.1564
     16 C          10.5137   41.5834    7.5872 C.ar    1  UNL1        0.0546
     17 C          11.7195   42.1571    8.0046 C.ar    1  UNL1        0.0516
     18 C          12.9110   41.4258    7.9652 C.ar    1  UNL1        0.1396
     19 C          12.8912   40.1002    7.5030 C.ar    1  UNL1        0.0370
     20 C          11.6920   39.5195    7.0843 C.ar    1  UNL1        0.0044
     21 C          10.5075   40.2586    7.1259 C.ar    1  UNL1        0.0149
     22 O          14.0946   42.0368    8.3934 O.3     1  UNL1       -0.4791
     23 C          15.3248   41.9376    7.6837 C.3     1  UNL1        0.1659
     24 C          16.4367   41.5915    8.6588 C.3     1  UNL1        0.0435
     25 C          17.5088   42.6461    8.4881 C.3     1  UNL1        0.0038
     26 C          16.7996   43.8496    7.9170 C.3     1  UNL1        0.0038
     27 C          15.6834   43.2821    7.0703 C.3     1  UNL1        0.0435
     28 O           4.0255   39.1871   12.0163 O.3     1  UNL1       -0.3772
     29 C           3.6749   40.5117   12.2799 C.3     1  UNL1        0.1636
     30 H           3.8575   38.6454   12.8032 H       1  UNL1        0.2109
@<TRIPOS>BOND
     1    29    28    1
     2    29     3    1
     3     4     5   ar
     4     6     1    1
     5     6    11   ar
     6     7     1    1
     7     7     8    1
     8     8    13    1
     9     9    13    1
    10     9     5    1
    11    10    14   am
    12    17    18   ar
    13    18    22    1
    14    23    22    1
    15    23    24    1
    16    24    25    1
    17    25    26    1
    18    26    27    1
    19    27    23    1
    20    19    20   ar
    21    21    16   ar
    22    12     3   ar
    23    13    10   am
    24    14    16    1
    25     3     4   ar
    26     5     6   ar
    27    10     2    2
    28    16    17   ar
    29    18    19   ar
    30    20    21   ar
    31    11    12   ar
    32    28    30    1
    33    14    15    1
@<TRIPOS>MOLECULE
MolPort-039-225-444 299801012 CSSS00159918082 MCULE-9136281289 PubChem-118789576 ZINC000299801012
 30 33 0 0 0
SMALL
GASTEIGER

@<TRIPOS>ATOM
      1 O          13.3188   34.3327    9.6868 O.3     1  UNL1       -0.4739
      2 O          14.0774   39.2540    8.3980 O.2     1  UNL1       -0.2522
      3 C          17.1146   35.0729    8.0085 C.ar    1  UNL1        0.0069
      4 C          16.4743   36.0993    8.7085 C.ar    1  UNL1       -0.0015
      5 C          15.2144   35.8924    9.2797 C.ar    1  UNL1        0.0315
      6 C          14.5850   34.6278    9.1546 C.ar    1  UNL1        0.1362
      7 C          12.5420   35.2095   10.4981 C.3     1  UNL1        0.2268
      8 C          12.1342   36.4512    9.7120 C.3     1  UNL1        0.1425
      9 C          14.5910   37.0363   10.0116 C.3     1  UNL1        0.1248
     10 C          13.0972   38.4944    8.6282 C.2     1  UNL1        0.3080
     11 C          15.2408   33.6099    8.4525 C.ar    1  UNL1        0.0364
     12 C          16.4976   33.8278    7.8842 C.ar    1  UNL1        0.0012
     13 N          13.2724   37.3368    9.4577 N.am    1  UNL1       -0.2559
     14 N          11.8071   38.7799    8.0654 N.am    1  UNL1       -0.2680
     15 H          11.0794   38.1580    8.2954 H       1  UNL1        0.1564
     16 C          11.4660   39.8747    7.2041 C.ar    1  UNL1        0.0546
     17 C          12.3370   40.9670    7.1285 C.ar    1  UNL1        0.0516
     18 C          12.0443   42.0597    6.3061 C.ar    1  UNL1        0.1396
     19 C          10.8628   42.0547    5.5477 C.ar    1  UNL1        0.0370
     20 C           9.9875   40.9686    5.6171 C.ar    1  UNL1        0.0044
     21 C          10.2878   39.8826    6.4426 C.ar    1  UNL1        0.0149
     22 O          12.9433   43.1308    6.2584 O.3     1  UNL1       -0.4791
     23 C          14.3226   42.9780    5.9404 C.3     1  UNL1        0.1659
     24 C          15.1335   42.9771    7.2246 C.3     1  UNL1        0.0435
     25 C          16.1865   44.0541    7.0749 C.3     1  UNL1        0.0038
     26 C          15.6323   45.0169    6.0535 C.3     1  UNL1        0.0038
     27 C          14.8036   44.1646    5.1199 C.3     1  UNL1        0.0435
     28 O          18.4008   36.3241    6.4701 O.3     1  UNL1       -0.3772
     29 C          18.4600   35.2942    7.4096 C.3     1  UNL1        0.1636
     30 H          19.2805   36.4616    6.0852 H       1  UNL1        0.2109
@<TRIPOS>BOND
     1    29    28    1
     2    29     3    1
     3     4     5   ar
     4     6     1    1
     5     6    11   ar
     6     7     1    1
     7     7     8    1
     8     8    13    1
     9     9    13    1
    10     9     5    1
    11    10    14   am
    12    17    18   ar
    13    18    22    1
    14    23    22    1
    15    23    24    1
    16    24    25    1
    17    25    26    1
    18    26    27    1
    19    27    23    1
    20    19    20   ar
    21    21    16   ar
    22    12     3   ar
    23    13    10   am
    24    14    16    1
    25     3     4   ar
    26     5     6   ar
    27    10     2    2
    28    16    17   ar
    29    18    19   ar
    30    20    21   ar
    31    11    12   ar
    32    28    30    1
    33    14    15    1
@<TRIPOS>MOLECULE
MolPort-039-225-444 299801012 CSSS00159918082 MCULE-9136281289 PubChem-118789576 ZINC000299801012
 30 33 0 0 0
SMALL
GASTEIGER

@<TRIPOS>ATOM
      1 O          10.5591   39.5047   10.4148 O.3     1  UNL1       -0.4739
      2 O          15.1953   40.9731    8.7396 O.2     1  UNL1       -0.2522
      3 C          13.2223   36.2971    9.7886 C.ar    1  UNL1        0.0069
      4 C          13.7415   37.5477   10.1349 C.ar    1  UNL1       -0.0015
      5 C          12.8902   38.6363   10.3509 C.ar    1  UNL1        0.0315
      6 C          11.4877   38.4675   10.2258 C.ar    1  UNL1        0.1362
      7 C          10.8760   40.8244   10.8486 C.3     1  UNL1        0.2268
      8 C          11.7490   41.5349    9.8194 C.3     1  UNL1        0.1425
      9 C          13.5173   39.9423   10.7164 C.3     1  UNL1        0.1248
     10 C          14.0292   41.4519    8.7850 C.2     1  UNL1        0.3080
     11 C          10.9839   37.2081    9.8806 C.ar    1  UNL1        0.0364
     12 C          11.8429   36.1285    9.6649 C.ar    1  UNL1        0.0012
     13 N          13.1055   40.9848    9.7786 N.am    1  UNL1       -0.2559
     14 N          13.6198   42.4611    7.8487 N.am    1  UNL1       -0.2680
     15 H          12.7027   42.8056    7.9464 H       1  UNL1        0.1564
     16 C          14.4046   43.0203    6.7866 C.ar    1  UNL1        0.0546
     17 C          13.8624   43.0566    5.4975 C.ar    1  UNL1        0.0516
     18 C          14.5920   43.5880    4.4292 C.ar    1  UNL1        0.1396
     19 C          15.8822   44.0919    4.6587 C.ar    1  UNL1        0.0370
     20 C          16.4314   44.0596    5.9424 C.ar    1  UNL1        0.0044
     21 C          15.6955   43.5254    7.0025 C.ar    1  UNL1        0.0149
     22 O          14.0118   43.6068    3.1562 O.3     1  UNL1       -0.4791
     23 C          14.7700   43.6962    1.9545 C.3     1  UNL1        0.1659
     24 C          14.6410   45.0989    1.3864 C.3     1  UNL1        0.0435
     25 C          14.1589   44.9476   -0.0404 C.3     1  UNL1        0.0038
     26 C          13.4658   43.6079   -0.0892 C.3     1  UNL1        0.0038
     27 C          14.2053   42.7470    0.9092 C.3     1  UNL1        0.0435
     28 O          15.2989   35.5615    8.9323 O.3     1  UNL1       -0.3772
     29 C          14.1313   35.1383    9.5684 C.3     1  UNL1        0.1636
     30 H          15.8849   34.8012    8.7928 H       1  UNL1        0.2109
@<TRIPOS>BOND
     1    29    28    1
     2    29     3    1
     3     4     5   ar
     4     6     1    1
     5     6    11   ar
     6     7     1    1
     7     7     8    1
     8     8    13    1
     9     9    13    1
    10     9     5    1
    11    10    14   am
    12    17    18   ar
    13    18    22    1
    14    23    22    1
    15    23    24    1
    16    24    25    1
    17    25    26    1
    18    26    27    1
    19    27    23    1
    20    19    20   ar
    21    21    16   ar
    22    12     3   ar
    23    13    10   am
    24    14    16    1
    25     3     4   ar
    26     5     6   ar
    27    10     2    2
    28    16    17   ar
    29    18    19   ar
    30    20    21   ar
    31    11    12   ar
    32    28    30    1
    33    14    15    1
@<TRIPOS>MOLECULE
MolPort-039-225-444 299801012 CSSS00159918082 MCULE-9136281289 PubChem-118789576 ZINC000299801012
 30 33 0 0 0
SMALL
GASTEIGER

@<TRIPOS>ATOM
      1 O          11.5351   40.3559   10.3297 O.3     1  UNL1       -0.4739
      2 O           7.3186   42.6876    8.5296 O.2     1  UNL1       -0.2522
      3 C          11.1402   40.1312    6.1384 C.ar    1  UNL1        0.0069
      4 C          10.5901   41.2262    6.8105 C.ar    1  UNL1       -0.0015
      5 C          10.7004   41.3366    8.2004 C.ar    1  UNL1        0.0315
      6 C          11.3836   40.3329    8.9332 C.ar    1  UNL1        0.1362
      7 C          11.1214   41.4176   11.1852 C.3     1  UNL1        0.2268
      8 C           9.6045   41.5740   11.1550 C.3     1  UNL1        0.1425
      9 C          10.0862   42.5340    8.8497 C.3     1  UNL1        0.1248
     10 C           7.7267   42.2256    9.6300 C.2     1  UNL1        0.3080
     11 C          11.9308   39.2439    8.2447 C.ar    1  UNL1        0.0364
     12 C          11.8129   39.1424    6.8570 C.ar    1  UNL1        0.0012
     13 N           9.1356   42.1224    9.8807 N.am    1  UNL1       -0.2559
     14 N           6.7907   41.8019   10.6336 N.am    1  UNL1       -0.2680
     15 H           7.1720   41.4656   11.4766 H       1  UNL1        0.1564
     16 C           5.3598   41.8165   10.5382 C.ar    1  UNL1        0.0546
     17 C           4.6079   41.8404   11.7177 C.ar    1  UNL1        0.0516
     18 C           3.2100   41.8505   11.6749 C.ar    1  UNL1        0.1396
     19 C           2.5584   41.8389   10.4313 C.ar    1  UNL1        0.0370
     20 C           3.3012   41.8150    9.2487 C.ar    1  UNL1        0.0044
     21 C           4.6968   41.8034    9.3020 C.ar    1  UNL1        0.0149
     22 O           2.4961   41.8763   12.8779 O.3     1  UNL1       -0.4791
     23 C           1.1262   42.2542   12.9642 C.3     1  UNL1        0.1659
     24 C           1.0364   43.7442   13.2445 C.3     1  UNL1        0.0435
     25 C           0.1834   43.9028   14.4848 C.3     1  UNL1        0.0038
     26 C           0.2955   42.5890   15.2188 C.3     1  UNL1        0.0038
     27 C           0.4627   41.5476   14.1360 C.3     1  UNL1        0.0435
     28 O           9.7439   40.3802    4.2478 O.3     1  UNL1       -0.3772
     29 C          11.0286   40.0219    4.6575 C.3     1  UNL1        0.1636
     30 H           9.6798   40.3063    3.2827 H       1  UNL1        0.2109
@<TRIPOS>BOND
     1    29    28    1
     2    29     3    1
     3     4     5   ar
     4     6     1    1
     5     6    11   ar
     6     7     1    1
     7     7     8    1
     8     8    13    1
     9     9    13    1
    10     9     5    1
    11    10    14   am
    12    17    18   ar
    13    18    22    1
    14    23    22    1
    15    23    24    1
    16    24    25    1
    17    25    26    1
    18    26    27    1
    19    27    23    1
    20    19    20   ar
    21    21    16   ar
    22    12     3   ar
    23    13    10   am
    24    14    16    1
    25     3     4   ar
    26     5     6   ar
    27    10     2    2
    28    16    17   ar
    29    18    19   ar
    30    20    21   ar
    31    11    12   ar
    32    28    30    1
    33    14    15    1
@<TRIPOS>MOLECULE
MolPort-039-225-444 299801012 CSSS00159918082 MCULE-9136281289 PubChem-118789576 ZINC000299801012
 30 33 0 0 0
SMALL
GASTEIGER

@<TRIPOS>ATOM
      1 O          14.3195   35.6112   10.2317 O.3     1  UNL1       -0.4739
      2 O          11.6918   39.9991    9.6860 O.2     1  UNL1       -0.2522
      3 C          16.7645   39.0446   10.1497 C.ar    1  UNL1        0.0069
      4 C          15.4583   39.1575   10.6341 C.ar    1  UNL1       -0.0015
      5 C          14.6166   38.0412   10.6773 C.ar    1  UNL1        0.0315
      6 C          15.0955   36.7823   10.2336 C.ar    1  UNL1        0.1362
      7 C          12.9999   35.4971   10.7572 C.3     1  UNL1        0.2268
      8 C          12.0290   36.3708    9.9697 C.3     1  UNL1        0.1425
      9 C          13.2332   38.2387   11.2062 C.3     1  UNL1        0.1248
     10 C          11.5011   38.7698    9.4773 C.2     1  UNL1        0.3080
     11 C          16.4067   36.6858    9.7535 C.ar    1  UNL1        0.0364
     12 C          17.2379   37.8071    9.7126 C.ar    1  UNL1        0.0012
     13 N          12.2450   37.7966   10.2244 N.am    1  UNL1       -0.2559
     14 N          10.5448   38.3378    8.4968 N.am    1  UNL1       -0.2680
     15 H          10.4308   37.3655    8.3922 H       1  UNL1        0.1564
     16 C           9.7384   39.1719    7.6538 C.ar    1  UNL1        0.0546
     17 C          10.2489   39.5663    6.4123 C.ar    1  UNL1        0.0516
     18 C           9.5012   40.3834    5.5582 C.ar    1  UNL1        0.1396
     19 C           8.2231   40.8080    5.9548 C.ar    1  UNL1        0.0370
     20 C           7.7056   40.4192    7.1923 C.ar    1  UNL1        0.0044
     21 C           8.4607   39.6044    8.0390 C.ar    1  UNL1        0.0149
     22 O          10.0483   40.7532    4.3248 O.3     1  UNL1       -0.4791
     23 C          10.2590   39.8344    3.2579 C.3     1  UNL1        0.1659
     24 C           9.0372   38.9430    3.1186 C.3     1  UNL1        0.0435
     25 C           9.5303   37.5140    3.1949 C.3     1  UNL1        0.0038
     26 C          10.8380   37.5809    3.9453 C.3     1  UNL1        0.0038
     27 C          11.4323   38.9217    3.5791 C.3     1  UNL1        0.0435
     28 O          18.6100   40.0853    9.1021 O.3     1  UNL1       -0.3772
     29 C          17.6606   40.2334   10.1138 C.3     1  UNL1        0.1636
     30 H          19.1891   40.8633    9.0857 H       1  UNL1        0.2109
@<TRIPOS>BOND
     1    29    28    1
     2    29     3    1
     3     4     5   ar
     4     6     1    1
     5     6    11   ar
     6     7     1    1
     7     7     8    1
     8     8    13    1
     9     9    13    1
    10     9     5    1
    11    10    14   am
    12    17    18   ar
    13    18    22    1
    14    23    22    1
    15    23    24    1
    16    24    25    1
    17    25    26    1
    18    26    27    1
    19    27    23    1
    20    19    20   ar
    21    21    16   ar
    22    12     3   ar
    23    13    10   am
    24    14    16    1
    25     3     4   ar
    26     5     6   ar
    27    10     2    2
    28    16    17   ar
    29    18    19   ar
    30    20    21   ar
    31    11    12   ar
    32    28    30    1
    33    14    15    1
@<TRIPOS>MOLECULE
MolPort-039-225-444 299801012 CSSS00159918082 MCULE-9136281289 PubChem-118789576 ZINC000299801012
 30 33 0 0 0
SMALL
GASTEIGER

@<TRIPOS>ATOM
      1 O           9.1759   39.9650    4.8029 O.3     1  UNL1       -0.4739
      2 O          11.4931   41.0646    9.2614 O.2     1  UNL1       -0.2522
      3 C           6.4985   41.0329    7.8793 C.ar    1  UNL1        0.0069
      4 C           7.7930   41.5594    7.8982 C.ar    1  UNL1       -0.0015
      5 C           8.7102   41.2289    6.8953 C.ar    1  UNL1        0.0315
      6 C           8.3205   40.3587    5.8455 C.ar    1  UNL1        0.1362
      7 C          10.4996   40.4505    4.5964 C.3     1  UNL1        0.2268
      8 C          11.4084   40.0457    5.7524 C.3     1  UNL1        0.1425
      9 C          10.0759   41.8287    6.9824 C.3     1  UNL1        0.1248
     10 C          11.7690   40.4419    8.1997 C.2     1  UNL1        0.3080
     11 C           7.0197   39.8419    5.8400 C.ar    1  UNL1        0.0364
     12 C           6.1126   40.1766    6.8475 C.ar    1  UNL1        0.0012
     13 N          11.0936   40.7798    6.9797 N.am    1  UNL1       -0.2559
     14 N          12.7542   39.3969    8.2038 N.am    1  UNL1       -0.2680
     15 H          12.9356   38.9601    7.3404 H       1  UNL1        0.1564
     16 C          13.5017   38.9220    9.3318 C.ar    1  UNL1        0.0546
     17 C          14.4668   37.9297    9.1289 C.ar    1  UNL1        0.0516
     18 C          15.2171   37.4320   10.1991 C.ar    1  UNL1        0.1396
     19 C          14.9973   37.9391   11.4897 C.ar    1  UNL1        0.0370
     20 C          14.0358   38.9297   11.7015 C.ar    1  UNL1        0.0044
     21 C          13.2904   39.4192   10.6265 C.ar    1  UNL1        0.0149
     22 O          16.1734   36.4411    9.9523 O.3     1  UNL1       -0.4791
     23 C          16.2732   35.7442    8.7148 C.3     1  UNL1        0.1659
     24 C          15.3629   34.5290    8.7518 C.3     1  UNL1        0.0435
     25 C          16.2240   33.3300    8.4172 C.3     1  UNL1        0.0038
     26 C          17.6325   33.7357    8.7764 C.3     1  UNL1        0.0038
     27 C          17.6892   35.2245    8.5212 C.3     1  UNL1        0.0435
     28 O           4.2578   40.9008    8.6198 O.3     1  UNL1       -0.3772
     29 C           5.5220   41.3944    8.9439 C.3     1  UNL1        0.1636
     30 H           3.6284   41.1405    9.3179 H       1  UNL1        0.2109
@<TRIPOS>BOND
     1    29    28    1
     2    29     3    1
     3     4     5   ar
     4     6     1    1
     5     6    11   ar
     6     7     1    1
     7     7     8    1
     8     8    13    1
     9     9    13    1
    10     9     5    1
    11    10    14   am
    12    17    18   ar
    13    18    22    1
    14    23    22    1
    15    23    24    1
    16    24    25    1
    17    25    26    1
    18    26    27    1
    19    27    23    1
    20    19    20   ar
    21    21    16   ar
    22    12     3   ar
    23    13    10   am
    24    14    16    1
    25     3     4   ar
    26     5     6   ar
    27    10     2    2
    28    16    17   ar
    29    18    19   ar
    30    20    21   ar
    31    11    12   ar
    32    28    30    1
    33    14    15    1
