@<TRIPOS>MOLECULE
MolPort-007-723-580 ChemDiv-E157-6420 MCULE-8433436354 PubChem-22518105 ZINC000006818372 ZINC06818372
 23 24 0 0 0
SMALL
GASTEIGER

@<TRIPOS>ATOM
      1 O          10.5820   39.7354    9.9903 O.2     1  UNL1       -0.1477
      2 O           9.2110   39.5458    7.9730 O.2     1  UNL1       -0.1477
      3 S          10.0058   40.4933    8.8275 S.O2    1  UNL1        0.1010
      4 C          13.2987   42.0771    6.9204 C.ar    1  UNL1        0.1893
      5 C          11.2972   41.1795    7.8632 C.ar    1  UNL1        0.2593
      6 N          12.2983   41.9568    6.0194 N.ar    1  UNL1       -0.1239
      7 N          11.1828   41.4553    6.5460 N.ar    1  UNL1       -0.1187
      8 S          12.8314   41.5532    8.4494 S.2     1  UNL1       -0.0102
      9 C          14.8643   43.8212    5.9442 C.2     1  UNL1        0.2276
     10 O          13.9150   44.5622    5.5666 O.2     1  UNL1       -0.2747
     11 N          14.6011   42.5856    6.6163 N.am    1  UNL1       -0.2627
     12 H          15.3759   42.0435    6.8905 H       1  UNL1        0.1568
     13 C          17.1477   44.1125    6.9508 C.3     1  UNL1        0.0101
     14 C          16.2892   44.2132    5.7001 C.3     1  UNL1        0.0854
     15 C           9.5910   43.0574    9.7057 C.3     1  UNL1        0.1392
     16 N           8.9810   41.7649    9.4240 N.pl3   1  UNL1       -0.1870
     17 C           7.5739   41.5534    9.6585 C.ar    1  UNL1        0.0689
     18 C           7.0549   41.5507   10.9641 C.ar    1  UNL1        0.0158
     19 C           5.6904   41.3498   11.1890 C.ar    1  UNL1       -0.0029
     20 C           4.8274   41.1481   10.1096 C.ar    1  UNL1       -0.0218
     21 C           3.3764   40.9347   10.3483 C.3     1  UNL1        0.0310
     22 C           5.3287   41.1470    8.8062 C.ar    1  UNL1       -0.0029
     23 C           6.6937   41.3484    8.5821 C.ar    1  UNL1        0.0158
@<TRIPOS>BOND
     1    13    14    1
     2    14     9    1
     3     9    11   am
     4     4     8   ar
     5     5     8   ar
     6    15    16    1
     7    18    19   ar
     8    20    22   ar
     9    21    20    1
    10    23    17   ar
    11    11     4    1
    12     6     7   ar
    13    16    17    1
    14     3     5    1
    15     3    16    1
    16     9    10    2
    17     4     6   ar
    18     5     7   ar
    19    17    18   ar
    20    19    20   ar
    21    22    23   ar
    22     3     1    2
    23     3     2    2
    24    11    12    1
@<TRIPOS>MOLECULE
MolPort-007-723-580 ChemDiv-E157-6420 MCULE-8433436354 PubChem-22518105 ZINC000006818372 ZINC06818372
 23 24 0 0 0
SMALL
GASTEIGER

@<TRIPOS>ATOM
      1 O           9.7165   40.8874    9.8207 O.2     1  UNL1       -0.1477
      2 O          10.3617   38.7695    8.7798 O.2     1  UNL1       -0.1477
      3 S           9.9744   40.1969    8.5110 S.O2    1  UNL1        0.1010
      4 C          13.2882   42.0469    6.9032 C.ar    1  UNL1        0.1893
      5 C          11.2870   40.9910    7.6656 C.ar    1  UNL1        0.2593
      6 N          12.3770   41.8704    5.9206 N.ar    1  UNL1       -0.1239
      7 N          11.2616   41.2807    6.3466 N.ar    1  UNL1       -0.1187
      8 S          12.7362   41.4641    8.3819 S.2     1  UNL1       -0.0102
      9 C          14.7965   43.9176    6.0839 C.2     1  UNL1        0.2276
     10 O          13.8295   44.5962    5.6398 O.2     1  UNL1       -0.2747
     11 N          14.5704   42.6531    6.7145 N.am    1  UNL1       -0.2627
     12 H          15.3579   42.1625    7.0440 H       1  UNL1        0.1568
     13 C          17.0866   43.9635    7.1161 C.3     1  UNL1        0.0101
     14 C          16.2041   44.4153    5.9634 C.3     1  UNL1        0.0854
     15 C           8.2508   39.1190    6.6712 C.3     1  UNL1        0.1392
     16 N           8.5331   40.2535    7.5402 N.pl3   1  UNL1       -0.1870
     17 C           7.6483   41.3918    7.5679 C.ar    1  UNL1        0.0689
     18 C           7.7592   42.4125    6.6089 C.ar    1  UNL1        0.0158
     19 C           6.8980   43.5126    6.6349 C.ar    1  UNL1       -0.0029
     20 C           5.9145   43.6059    7.6221 C.ar    1  UNL1       -0.0218
     21 C           4.9984   44.7755    7.6500 C.3     1  UNL1        0.0310
     22 C           5.7926   42.5998    8.5829 C.ar    1  UNL1       -0.0029
     23 C           6.6544   41.4995    8.5559 C.ar    1  UNL1        0.0158
@<TRIPOS>BOND
     1    13    14    1
     2    14     9    1
     3     9    11   am
     4     4     8   ar
     5     5     8   ar
     6    15    16    1
     7    18    19   ar
     8    20    22   ar
     9    21    20    1
    10    23    17   ar
    11    11     4    1
    12     6     7   ar
    13    16    17    1
    14     3     5    1
    15     3    16    1
    16     9    10    2
    17     4     6   ar
    18     5     7   ar
    19    17    18   ar
    20    19    20   ar
    21    22    23   ar
    22     3     1    2
    23     3     2    2
    24    11    12    1
@<TRIPOS>MOLECULE
MolPort-007-723-580 ChemDiv-E157-6420 MCULE-8433436354 PubChem-22518105 ZINC000006818372 ZINC06818372
 23 24 0 0 0
SMALL
GASTEIGER

@<TRIPOS>ATOM
      1 O          15.1891   38.7372   12.5115 O.2     1  UNL1       -0.1477
      2 O          16.3564   37.1598   11.0505 O.2     1  UNL1       -0.1477
      3 S          15.3358   38.2626   11.0931 S.O2    1  UNL1        0.1010
      4 C          16.1932   41.4337    8.6037 C.ar    1  UNL1        0.1893
      5 C          15.8817   39.5802   10.0760 C.ar    1  UNL1        0.2593
      6 N          17.3469   41.0008    9.1591 N.ar    1  UNL1       -0.1239
      7 N          17.1720   39.9676    9.9807 N.ar    1  UNL1       -0.1187
      8 S          14.8712   40.5306    9.1207 S.2     1  UNL1       -0.0102
      9 C          14.9884   42.7861    6.8245 C.2     1  UNL1        0.2276
     10 O          13.9834   42.0228    6.8266 O.2     1  UNL1       -0.2747
     11 N          16.1004   42.5291    7.6877 N.am    1  UNL1       -0.2627
     12 H          16.8601   43.1540    7.6484 H       1  UNL1        0.1568
     13 C          16.3071   44.8044    6.1176 C.3     1  UNL1        0.0101
     14 C          15.0453   43.9794    5.9208 C.3     1  UNL1        0.0854
     15 C          13.6720   36.2557   10.2434 C.3     1  UNL1        0.1392
     16 N          13.8003   37.6796   10.5227 N.pl3   1  UNL1       -0.1870
     17 C          12.6872   38.5706   10.3068 C.ar    1  UNL1        0.0689
     18 C          12.4364   39.6350   11.1889 C.ar    1  UNL1        0.0158
     19 C          11.3598   40.4999   10.9755 C.ar    1  UNL1       -0.0029
     20 C          10.5193   40.3102    9.8764 C.ar    1  UNL1       -0.0218
     21 C           9.3745   41.2298    9.6490 C.3     1  UNL1        0.0310
     22 C          10.7552   39.2560    8.9914 C.ar    1  UNL1       -0.0029
     23 C          11.8326   38.3915    9.2054 C.ar    1  UNL1        0.0158
@<TRIPOS>BOND
     1    13    14    1
     2    14     9    1
     3     9    11   am
     4     4     8   ar
     5     5     8   ar
     6    15    16    1
     7    18    19   ar
     8    20    22   ar
     9    21    20    1
    10    23    17   ar
    11    11     4    1
    12     6     7   ar
    13    16    17    1
    14     3     5    1
    15     3    16    1
    16     9    10    2
    17     4     6   ar
    18     5     7   ar
    19    17    18   ar
    20    19    20   ar
    21    22    23   ar
    22     3     1    2
    23     3     2    2
    24    11    12    1
@<TRIPOS>MOLECULE
MolPort-007-723-580 ChemDiv-E157-6420 MCULE-8433436354 PubChem-22518105 ZINC000006818372 ZINC06818372
 23 24 0 0 0
SMALL
GASTEIGER

@<TRIPOS>ATOM
      1 O           8.3750   42.2828    5.9660 O.2     1  UNL1       -0.1477
      2 O           7.3884   43.7546    7.6529 O.2     1  UNL1       -0.1477
      3 S           7.9277   42.3749    7.3978 S.O2    1  UNL1        0.1010
      4 C          11.1380   41.2945    9.7462 C.ar    1  UNL1        0.1893
      5 C           9.2857   42.0901    8.4670 C.ar    1  UNL1        0.2593
      6 N          10.8631   42.5988    9.9701 N.ar    1  UNL1       -0.1239
      7 N           9.8304   43.0418    9.2556 N.ar    1  UNL1       -0.1187
      8 S          10.0851   40.6158    8.6230 S.2     1  UNL1       -0.0102
      9 C          13.4927   40.3477    9.8182 C.2     1  UNL1        0.2276
     10 O          13.7820   40.7957    8.6743 O.2     1  UNL1       -0.2747
     11 N          12.1971   40.5728   10.3826 N.am    1  UNL1       -0.2627
     12 H          12.0209   40.2027   11.2776 H       1  UNL1        0.1568
     13 C          13.8568   38.4613   11.4371 C.3     1  UNL1        0.0101
     14 C          14.4946   39.5698   10.6149 C.3     1  UNL1        0.0854
     15 C           6.5864   40.0703    6.7591 C.3     1  UNL1        0.1392
     16 N           6.6930   41.1860    7.6896 N.pl3   1  UNL1       -0.1870
     17 C           5.7818   41.3010    8.8014 C.ar    1  UNL1        0.0689
     18 C           6.2628   41.4384   10.1143 C.ar    1  UNL1        0.0158
     19 C           5.3781   41.5540   11.1897 C.ar    1  UNL1       -0.0029
     20 C           3.9998   41.5329   10.9652 C.ar    1  UNL1       -0.0218
     21 C           3.0588   41.6560   12.1085 C.3     1  UNL1        0.0310
     22 C           3.5066   41.3959    9.6658 C.ar    1  UNL1       -0.0029
     23 C           4.3923   41.2806    8.5906 C.ar    1  UNL1        0.0158
@<TRIPOS>BOND
     1    13    14    1
     2    14     9    1
     3     9    11   am
     4     4     8   ar
     5     5     8   ar
     6    15    16    1
     7    18    19   ar
     8    20    22   ar
     9    21    20    1
    10    23    17   ar
    11    11     4    1
    12     6     7   ar
    13    16    17    1
    14     3     5    1
    15     3    16    1
    16     9    10    2
    17     4     6   ar
    18     5     7   ar
    19    17    18   ar
    20    19    20   ar
    21    22    23   ar
    22     3     1    2
    23     3     2    2
    24    11    12    1
@<TRIPOS>MOLECULE
MolPort-007-723-580 ChemDiv-E157-6420 MCULE-8433436354 PubChem-22518105 ZINC000006818372 ZINC06818372
 23 24 0 0 0
SMALL
GASTEIGER

@<TRIPOS>ATOM
      1 O           9.9892   39.3270    8.2103 O.2     1  UNL1       -0.1477
      2 O           9.1129   40.5253    6.2656 O.2     1  UNL1       -0.1477
      3 S           9.8677   40.6750    7.5570 S.O2    1  UNL1        0.1010
      4 C          13.7229   42.0784    7.1612 C.ar    1  UNL1        0.1893
      5 C          11.4606   41.3168    7.2116 C.ar    1  UNL1        0.2593
      6 N          13.1000   42.1942    5.9672 N.ar    1  UNL1       -0.1239
      7 N          11.8387   41.7684    5.9961 N.ar    1  UNL1       -0.1187
      8 S          12.7102   41.4258    8.3356 S.2     1  UNL1       -0.0102
      9 C          15.6706   43.6986    6.9945 C.2     1  UNL1        0.2276
     10 O          14.9911   44.5590    6.3694 O.2     1  UNL1       -0.2747
     11 N          15.0804   42.4606    7.4029 N.am    1  UNL1       -0.2627
     12 H          15.6525   41.8226    7.8876 H       1  UNL1        0.1568
     13 C          17.5235   43.3272    8.6501 C.3     1  UNL1        0.0101
     14 C          17.1099   43.9483    7.3254 C.3     1  UNL1        0.0854
     15 C           8.2795   42.8593    8.0302 C.3     1  UNL1        0.1392
     16 N           9.0201   41.7545    8.6242 N.pl3   1  UNL1       -0.1870
     17 C           9.0593   41.5861   10.0559 C.ar    1  UNL1        0.0689
     18 C          10.2689   41.3081   10.7144 C.ar    1  UNL1        0.0158
     19 C          10.3055   41.1495   12.1022 C.ar    1  UNL1       -0.0029
     20 C           9.1314   41.2663   12.8494 C.ar    1  UNL1       -0.0218
     21 C           9.1700   41.0979   14.3252 C.3     1  UNL1        0.0310
     22 C           7.9212   41.5412   12.2088 C.ar    1  UNL1       -0.0029
     23 C           7.8856   41.7000   10.8206 C.ar    1  UNL1        0.0158
@<TRIPOS>BOND
     1    13    14    1
     2    14     9    1
     3     9    11   am
     4     4     8   ar
     5     5     8   ar
     6    15    16    1
     7    18    19   ar
     8    20    22   ar
     9    21    20    1
    10    23    17   ar
    11    11     4    1
    12     6     7   ar
    13    16    17    1
    14     3     5    1
    15     3    16    1
    16     9    10    2
    17     4     6   ar
    18     5     7   ar
    19    17    18   ar
    20    19    20   ar
    21    22    23   ar
    22     3     1    2
    23     3     2    2
    24    11    12    1
@<TRIPOS>MOLECULE
MolPort-007-723-580 ChemDiv-E157-6420 MCULE-8433436354 PubChem-22518105 ZINC000006818372 ZINC06818372
 23 24 0 0 0
SMALL
GASTEIGER

@<TRIPOS>ATOM
      1 O           9.1102   43.6708   10.1078 O.2     1  UNL1       -0.1477
      2 O           9.2002   41.8596   11.7500 O.2     1  UNL1       -0.1477
      3 S           9.3210   42.1939   10.2894 S.O2    1  UNL1        0.1010
      4 C          13.0603   40.7962    9.2636 C.ar    1  UNL1        0.1893
      5 C          10.9215   41.7466    9.7357 C.ar    1  UNL1        0.2593
      6 N          12.7800   41.8731    8.4962 N.ar    1  UNL1       -0.1239
      7 N          11.5866   42.4018    8.7597 N.ar    1  UNL1       -0.1187
      8 S          11.8078   40.4435   10.3302 S.2     1  UNL1       -0.0102
      9 C          14.9228   39.4079   10.2882 C.2     1  UNL1        0.2276
     10 O          14.4360   39.4864   11.4500 O.2     1  UNL1       -0.2747
     11 N          14.2731   40.0414    9.1817 N.am    1  UNL1       -0.2627
     12 H          14.6929   39.9508    8.2958 H       1  UNL1        0.1568
     13 C          16.5060   37.6511   11.1362 C.3     1  UNL1        0.0101
     14 C          16.1909   38.6518   10.0358 C.3     1  UNL1        0.0854
     15 C           8.5733   40.5185    8.2518 C.3     1  UNL1        0.1392
     16 N           8.1218   41.3277    9.3758 N.pl3   1  UNL1       -0.1870
     17 C           6.7186   41.4168    9.6961 C.ar    1  UNL1        0.0689
     18 C           5.7461   41.3840    8.6826 C.ar    1  UNL1        0.0158
     19 C           4.3867   41.4663    8.9953 C.ar    1  UNL1       -0.0029
     20 C           3.9826   41.5832   10.3271 C.ar    1  UNL1       -0.0218
     21 C           2.5372   41.6705   10.6601 C.3     1  UNL1        0.0310
     22 C           4.9377   41.6182   11.3454 C.ar    1  UNL1       -0.0029
     23 C           6.2973   41.5356   11.0317 C.ar    1  UNL1        0.0158
@<TRIPOS>BOND
     1    13    14    1
     2    14     9    1
     3     9    11   am
     4     4     8   ar
     5     5     8   ar
     6    15    16    1
     7    18    19   ar
     8    20    22   ar
     9    21    20    1
    10    23    17   ar
    11    11     4    1
    12     6     7   ar
    13    16    17    1
    14     3     5    1
    15     3    16    1
    16     9    10    2
    17     4     6   ar
    18     5     7   ar
    19    17    18   ar
    20    19    20   ar
    21    22    23   ar
    22     3     1    2
    23     3     2    2
    24    11    12    1
@<TRIPOS>MOLECULE
MolPort-007-723-580 ChemDiv-E157-6420 MCULE-8433436354 PubChem-22518105 ZINC000006818372 ZINC06818372
 23 24 0 0 0
SMALL
GASTEIGER

@<TRIPOS>ATOM
      1 O          15.5407   38.6389   12.1679 O.2     1  UNL1       -0.1477
      2 O          13.5278   37.3462   11.6551 O.2     1  UNL1       -0.1477
      3 S          14.6613   38.1333   11.0589 S.O2    1  UNL1        0.1010
      4 C          16.4878   35.7036    8.2753 C.ar    1  UNL1        0.1893
      5 C          15.5813   37.0872    9.9971 C.ar    1  UNL1        0.2593
      6 N          17.3390   35.8856    9.3094 N.ar    1  UNL1       -0.1239
      7 N          16.8328   36.6580   10.2687 N.ar    1  UNL1       -0.1187
      8 S          15.0323   36.5139    8.5115 S.2     1  UNL1       -0.0102
      9 C          16.2842   33.6025    6.8647 C.2     1  UNL1        0.2276
     10 O          15.5195   33.0366    7.6940 O.2     1  UNL1       -0.2747
     11 N          16.7839   34.9197    7.1154 N.am    1  UNL1       -0.2627
     12 H          17.3772   35.3172    6.4378 H       1  UNL1        0.1568
     13 C          15.5077   32.3113    4.8542 C.3     1  UNL1        0.0101
     14 C          16.6893   32.9129    5.5981 C.3     1  UNL1        0.0854
     15 C          12.5981   39.6678   10.1069 C.3     1  UNL1        0.1392
     16 N          14.0424   39.4850   10.1574 N.pl3   1  UNL1       -0.1870
     17 C          14.9193   40.3913    9.4579 C.ar    1  UNL1        0.0689
     18 C          16.2816   40.4749    9.7915 C.ar    1  UNL1        0.0158
     19 C          17.1306   41.3507    9.1097 C.ar    1  UNL1       -0.0029
     20 C          16.6269   42.1550    8.0851 C.ar    1  UNL1       -0.0218
     21 C          17.5294   43.0862    7.3597 C.3     1  UNL1        0.0310
     22 C          15.2748   42.0839    7.7429 C.ar    1  UNL1       -0.0029
     23 C          14.4263   41.2074    8.4253 C.ar    1  UNL1        0.0158
@<TRIPOS>BOND
     1    13    14    1
     2    14     9    1
     3     9    11   am
     4     4     8   ar
     5     5     8   ar
     6    15    16    1
     7    18    19   ar
     8    20    22   ar
     9    21    20    1
    10    23    17   ar
    11    11     4    1
    12     6     7   ar
    13    16    17    1
    14     3     5    1
    15     3    16    1
    16     9    10    2
    17     4     6   ar
    18     5     7   ar
    19    17    18   ar
    20    19    20   ar
    21    22    23   ar
    22     3     1    2
    23     3     2    2
    24    11    12    1
@<TRIPOS>MOLECULE
MolPort-007-723-580 ChemDiv-E157-6420 MCULE-8433436354 PubChem-22518105 ZINC000006818372 ZINC06818372
 23 24 0 0 0
SMALL
GASTEIGER

@<TRIPOS>ATOM
      1 O          11.4436   41.5636   10.2497 O.2     1  UNL1       -0.1477
      2 O          11.7815   43.0195    8.3127 O.2     1  UNL1       -0.1477
      3 S          11.1364   41.7484    8.7902 S.O2    1  UNL1        0.1010
      4 C           7.0208   41.9357    8.6680 C.ar    1  UNL1        0.1893
      5 C           9.4047   41.8681    8.5550 C.ar    1  UNL1        0.2593
      6 N           7.5012   42.2679    7.4491 N.ar    1  UNL1       -0.1239
      7 N           8.8309   42.2307    7.3873 N.ar    1  UNL1       -0.1187
      8 S           8.2561   41.5720    9.7508 S.2     1  UNL1       -0.0102
      9 C           4.7930   43.0479    9.1640 C.2     1  UNL1        0.2276
     10 O           5.2603   44.2100    9.0095 O.2     1  UNL1       -0.2747
     11 N           5.6305   41.8987    9.0042 N.am    1  UNL1       -0.2627
     12 H           5.2183   41.0143    9.1355 H       1  UNL1        0.1568
     13 C           2.9025   41.4007    9.3219 C.3     1  UNL1        0.0101
     14 C           3.3526   42.8396    9.5184 C.3     1  UNL1        0.0854
     15 C          12.0088   40.5676    6.4745 C.3     1  UNL1        0.1392
     16 N          11.7562   40.3907    7.8982 N.pl3   1  UNL1       -0.1870
     17 C          11.9957   39.1173    8.5310 C.ar    1  UNL1        0.0689
     18 C          10.9396   38.3889    9.1037 C.ar    1  UNL1        0.0158
     19 C          11.1731   37.1530    9.7127 C.ar    1  UNL1       -0.0029
     20 C          12.4674   36.6302    9.7570 C.ar    1  UNL1       -0.0218
     21 C          12.7160   35.3160   10.4043 C.3     1  UNL1        0.0310
     22 C          13.5276   37.3431    9.1930 C.ar    1  UNL1       -0.0029
     23 C          13.2930   38.5791    8.5838 C.ar    1  UNL1        0.0158
@<TRIPOS>BOND
     1    13    14    1
     2    14     9    1
     3     9    11   am
     4     4     8   ar
     5     5     8   ar
     6    15    16    1
     7    18    19   ar
     8    20    22   ar
     9    21    20    1
    10    23    17   ar
    11    11     4    1
    12     6     7   ar
    13    16    17    1
    14     3     5    1
    15     3    16    1
    16     9    10    2
    17     4     6   ar
    18     5     7   ar
    19    17    18   ar
    20    19    20   ar
    21    22    23   ar
    22     3     1    2
    23     3     2    2
    24    11    12    1
@<TRIPOS>MOLECULE
MolPort-007-723-580 ChemDiv-E157-6420 MCULE-8433436354 PubChem-22518105 ZINC000006818372 ZINC06818372
 23 24 0 0 0
SMALL
GASTEIGER

@<TRIPOS>ATOM
      1 O           9.9316   42.8339   10.5222 O.2     1  UNL1       -0.1477
      2 O          10.2036   40.4613   11.0535 O.2     1  UNL1       -0.1477
      3 S          10.1456   41.4663    9.9371 S.O2    1  UNL1        0.1010
      4 C          13.6432   41.7969    7.7817 C.ar    1  UNL1        0.1893
      5 C          11.6593   41.4237    9.0566 C.ar    1  UNL1        0.2593
      6 N          13.5616   40.5416    8.2761 N.ar    1  UNL1       -0.1239
      7 N          12.4552   40.3347    8.9876 N.ar    1  UNL1       -0.1187
      8 S          12.3122   42.7296    8.2168 S.2     1  UNL1       -0.0102
      9 C          14.6976   43.4689    6.1883 C.2     1  UNL1        0.2276
     10 O          13.6596   44.1852    6.1434 O.2     1  UNL1       -0.2747
     11 N          14.7293   42.2812    6.9859 N.am    1  UNL1       -0.2627
     12 H          15.5625   41.7568    6.9871 H       1  UNL1        0.1568
     13 C          17.0963   44.2072    6.3037 C.3     1  UNL1        0.0101
     14 C          15.9222   43.8406    5.4100 C.3     1  UNL1        0.0854
     15 C           7.4802   41.4185    9.2958 C.3     1  UNL1        0.1392
     16 N           8.8317   41.0914    8.8618 N.pl3   1  UNL1       -0.1870
     17 C           9.0570   40.4557    7.5872 C.ar    1  UNL1        0.0689
     18 C           9.1213   39.0560    7.4829 C.ar    1  UNL1        0.0158
     19 C           9.3355   38.4418    6.2462 C.ar    1  UNL1       -0.0029
     20 C           9.4889   39.2208    5.0972 C.ar    1  UNL1       -0.0218
     21 C           9.7164   38.5681    3.7819 C.3     1  UNL1        0.0310
     22 C           9.4285   40.6133    5.1852 C.ar    1  UNL1       -0.0029
     23 C           9.2140   41.2268    6.4227 C.ar    1  UNL1        0.0158
@<TRIPOS>BOND
     1    13    14    1
     2    14     9    1
     3     9    11   am
     4     4     8   ar
     5     5     8   ar
     6    15    16    1
     7    18    19   ar
     8    20    22   ar
     9    21    20    1
    10    23    17   ar
    11    11     4    1
    12     6     7   ar
    13    16    17    1
    14     3     5    1
    15     3    16    1
    16     9    10    2
    17     4     6   ar
    18     5     7   ar
    19    17    18   ar
    20    19    20   ar
    21    22    23   ar
    22     3     1    2
    23     3     2    2
    24    11    12    1
@<TRIPOS>MOLECULE
MolPort-007-723-580 ChemDiv-E157-6420 MCULE-8433436354 PubChem-22518105 ZINC000006818372 ZINC06818372
 23 24 0 0 0
SMALL
GASTEIGER

@<TRIPOS>ATOM
      1 O          10.2813   41.2191    4.8079 O.2     1  UNL1       -0.1477
      2 O          10.1467   38.7765    4.7800 O.2     1  UNL1       -0.1477
      3 S           9.9746   40.0016    5.6339 S.O2    1  UNL1        0.1010
      4 C           6.2178   40.4617    7.2658 C.ar    1  UNL1        0.1893
      5 C           8.3194   40.0680    6.2034 C.ar    1  UNL1        0.2593
      6 N           6.1318   39.5991    6.2288 N.ar    1  UNL1       -0.1239
      7 N           7.3042   39.3808    5.6364 N.ar    1  UNL1       -0.1187
      8 S           7.7926   41.0058    7.4996 S.2     1  UNL1       -0.0102
      9 C           5.1798   41.2176    9.4561 C.2     1  UNL1        0.2276
     10 O           6.2816   41.1814   10.0705 O.2     1  UNL1       -0.2747
     11 N           5.1067   40.8692    8.0701 N.am    1  UNL1       -0.2627
     12 H           4.2239   40.9133    7.6365 H       1  UNL1        0.1568
     13 C           2.6725   41.3301    9.3427 C.3     1  UNL1        0.0101
     14 C           3.9211   41.6248   10.1586 C.3     1  UNL1        0.0854
     15 C          10.7234   39.0526    8.0949 C.3     1  UNL1        0.1392
     16 N          11.0592   39.9424    6.9915 N.pl3   1  UNL1       -0.1870
     17 C          12.2457   40.7602    7.0463 C.ar    1  UNL1        0.0689
     18 C          12.4249   41.8284    6.1514 C.ar    1  UNL1        0.0158
     19 C          13.5734   42.6223    6.2089 C.ar    1  UNL1       -0.0029
     20 C          14.5583   42.3570    7.1629 C.ar    1  UNL1       -0.0218
     21 C          15.7795   43.2011    7.2245 C.3     1  UNL1        0.0310
     22 C          14.3948   41.2980    8.0585 C.ar    1  UNL1       -0.0029
     23 C          13.2455   40.5045    8.0004 C.ar    1  UNL1        0.0158
@<TRIPOS>BOND
     1    13    14    1
     2    14     9    1
     3     9    11   am
     4     4     8   ar
     5     5     8   ar
     6    15    16    1
     7    18    19   ar
     8    20    22   ar
     9    21    20    1
    10    23    17   ar
    11    11     4    1
    12     6     7   ar
    13    16    17    1
    14     3     5    1
    15     3    16    1
    16     9    10    2
    17     4     6   ar
    18     5     7   ar
    19    17    18   ar
    20    19    20   ar
    21    22    23   ar
    22     3     1    2
    23     3     2    2
    24    11    12    1
