@<TRIPOS>MOLECULE
MolPort-006-495-211 ChemDiv-V014-3900F MCULE-7172726103 PubChem-8094207
 24 25 0 0 0
SMALL
GASTEIGER

@<TRIPOS>ATOM
      1 C          11.8923   42.0152    5.8743 C.ar    1  UNL1        0.1885
      2 C          10.3526   40.1809    5.8873 C.ar    1  UNL1        0.1606
      3 N          10.6504   42.3603    5.4716 N.ar    1  UNL1       -0.1248
      4 N           9.7936   41.3410    5.4812 N.ar    1  UNL1       -0.1332
      5 S          11.9797   40.3750    6.2696 S.2     1  UNL1       -0.0241
      6 C          14.1261   42.8791    6.7701 C.2     1  UNL1        0.2276
      7 O          14.2610   41.9467    7.6051 O.2     1  UNL1       -0.2747
      8 N          12.9679   42.9595    5.9303 N.am    1  UNL1       -0.2627
      9 H          12.9053   43.7400    5.3335 H       1  UNL1        0.1568
     10 C          15.1844   43.9352    6.6831 C.3     1  UNL1        0.0854
     11 C          17.5453   43.7502    5.7963 C.3     1  UNL1        0.0005
     12 C          16.6003   43.4113    6.9358 C.3     1  UNL1        0.0091
     13 C          17.1620   43.8964    8.2597 C.3     1  UNL1        0.0005
     14 S           9.4532   38.6398    6.0155 S.3     1  UNL1       -0.0865
     15 C           8.6656   39.0901    7.5978 C.3     1  UNL1        0.0680
     16 C           9.4441   40.1730    8.3334 C.3     1  UNL1        0.0594
     17 C          10.4820   39.5779    9.2778 C.3     1  UNL1        0.2063
     18 O          10.5612   38.1625    9.1289 O.3     1  UNL1       -0.4754
     19 C          11.7055   37.4162    9.4337 C.ar    1  UNL1        0.1386
     20 C          11.6010   36.3607   10.3458 C.ar    1  UNL1        0.0369
     21 C          12.7231   35.5900   10.6655 C.ar    1  UNL1        0.0031
     22 C          13.9576   35.8732   10.0747 C.ar    1  UNL1        0.0002
     23 C          14.0715   36.9283    9.1654 C.ar    1  UNL1        0.0031
     24 C          12.9498   37.6988    8.8459 C.ar    1  UNL1        0.0369
@<TRIPOS>BOND
     1    11    12    1
     2    12    13    1
     3    12    10    1
     4    10     6    1
     5     6     8   am
     6     1     5   ar
     7     2    14    1
     8     2     5   ar
     9    15    14    1
    10    15    16    1
    11    16    17    1
    12    17    18    1
    13    19    18    1
    14    20    21   ar
    15    22    23   ar
    16    24    19   ar
    17     8     1    1
    18     3     4   ar
    19     6     7    2
    20     1     3   ar
    21     2     4   ar
    22    19    20   ar
    23    21    22   ar
    24    23    24   ar
    25     8     9    1
@<TRIPOS>MOLECULE
MolPort-006-495-211 ChemDiv-V014-3900F MCULE-7172726103 PubChem-8094207
 24 25 0 0 0
SMALL
GASTEIGER

@<TRIPOS>ATOM
      1 C           8.1261   42.6234    9.8765 C.ar    1  UNL1        0.1885
      2 C          10.4362   42.2680    9.3542 C.ar    1  UNL1        0.1606
      3 N           8.9550   43.4639   10.5321 N.ar    1  UNL1       -0.1248
      4 N          10.2394   43.2680   10.2399 N.ar    1  UNL1       -0.1332
      5 S           8.9835   41.5664    8.8756 S.2     1  UNL1       -0.0241
      6 C           5.7505   43.2244    9.1457 C.2     1  UNL1        0.2276
      7 O           6.1196   43.8116    8.0951 O.2     1  UNL1       -0.2747
      8 N           6.7050   42.6592   10.0527 N.am    1  UNL1       -0.2627
      9 H           6.3494   42.2560   10.8775 H       1  UNL1        0.1568
     10 C           4.2882   43.1489    9.4603 C.3     1  UNL1        0.0854
     11 C           3.4889   41.9927   11.5624 C.3     1  UNL1        0.0005
     12 C           3.8629   41.8250   10.1002 C.3     1  UNL1        0.0091
     13 C           2.7380   41.1543    9.3332 C.3     1  UNL1        0.0005
     14 S          12.0497   41.7756    8.7589 S.3     1  UNL1       -0.0865
     15 C          12.3221   40.5872   10.1154 C.3     1  UNL1        0.0680
     16 C          13.7582   40.0807   10.1490 C.3     1  UNL1        0.0594
     17 C          14.4820   40.3515    8.8352 C.3     1  UNL1        0.2063
     18 O          15.6792   41.0944    9.0512 O.3     1  UNL1       -0.4754
     19 C          16.1075   42.1306    8.2134 C.ar    1  UNL1        0.1386
     20 C          17.3794   42.6783    8.4116 C.ar    1  UNL1        0.0369
     21 C          17.8410   43.7085    7.5866 C.ar    1  UNL1        0.0031
     22 C          17.0304   44.1982    6.5588 C.ar    1  UNL1        0.0002
     23 C          15.7569   43.6593    6.3564 C.ar    1  UNL1        0.0031
     24 C          15.2954   42.6294    7.1812 C.ar    1  UNL1        0.0369
@<TRIPOS>BOND
     1    11    12    1
     2    12    13    1
     3    12    10    1
     4    10     6    1
     5     6     8   am
     6     1     5   ar
     7     2    14    1
     8     2     5   ar
     9    15    14    1
    10    15    16    1
    11    16    17    1
    12    17    18    1
    13    19    18    1
    14    20    21   ar
    15    22    23   ar
    16    24    19   ar
    17     8     1    1
    18     3     4   ar
    19     6     7    2
    20     1     3   ar
    21     2     4   ar
    22    19    20   ar
    23    21    22   ar
    24    23    24   ar
    25     8     9    1
@<TRIPOS>MOLECULE
MolPort-006-495-211 ChemDiv-V014-3900F MCULE-7172726103 PubChem-8094207
 24 25 0 0 0
SMALL
GASTEIGER

@<TRIPOS>ATOM
      1 C          12.0846   42.0890    6.2062 C.ar    1  UNL1        0.1885
      2 C          10.5897   40.3536    6.9057 C.ar    1  UNL1        0.1606
      3 N          11.7866   41.2147    5.2212 N.ar    1  UNL1       -0.1248
      4 N          10.9534   40.2512    5.6093 N.ar    1  UNL1       -0.1332
      5 S          11.3010   41.6859    7.6476 S.2     1  UNL1       -0.0241
      6 C          14.3591   43.2489    6.3499 C.2     1  UNL1        0.2276
      7 O          14.9187   42.2884    6.9409 O.2     1  UNL1       -0.2747
      8 N          12.9697   43.1968    6.0033 N.am    1  UNL1       -0.2627
      9 H          12.5859   44.0011    5.5848 H       1  UNL1        0.1568
     10 C          15.1598   44.4752    6.0370 C.3     1  UNL1        0.0854
     11 C          16.6788   43.7891    7.9386 C.3     1  UNL1        0.0005
     12 C          16.5969   44.4235    6.5613 C.3     1  UNL1        0.0091
     13 C          17.5342   43.7249    5.5933 C.3     1  UNL1        0.0005
     14 S           9.4723   39.2140    7.7137 S.3     1  UNL1       -0.0865
     15 C           8.2455   39.2702    6.3652 C.3     1  UNL1        0.0680
     16 C           6.8748   39.7129    6.8604 C.3     1  UNL1        0.0594
     17 C           6.9350   41.0743    7.5430 C.3     1  UNL1        0.2063
     18 O           6.7195   40.9557    8.9471 O.3     1  UNL1       -0.4754
     19 C           5.5150   41.2934    9.5753 C.ar    1  UNL1        0.1386
     20 C           4.3480   41.3625    8.8070 C.ar    1  UNL1        0.0369
     21 C           3.1271   41.6885    9.4053 C.ar    1  UNL1        0.0031
     22 C           3.0677   41.9494   10.7771 C.ar    1  UNL1        0.0002
     23 C           4.2295   41.8862   11.5512 C.ar    1  UNL1        0.0031
     24 C           5.4502   41.5604   10.9531 C.ar    1  UNL1        0.0369
@<TRIPOS>BOND
     1    11    12    1
     2    12    13    1
     3    12    10    1
     4    10     6    1
     5     6     8   am
     6     1     5   ar
     7     2    14    1
     8     2     5   ar
     9    15    14    1
    10    15    16    1
    11    16    17    1
    12    17    18    1
    13    19    18    1
    14    20    21   ar
    15    22    23   ar
    16    24    19   ar
    17     8     1    1
    18     3     4   ar
    19     6     7    2
    20     1     3   ar
    21     2     4   ar
    22    19    20   ar
    23    21    22   ar
    24    23    24   ar
    25     8     9    1
@<TRIPOS>MOLECULE
MolPort-006-495-211 ChemDiv-V014-3900F MCULE-7172726103 PubChem-8094207
 24 25 0 0 0
SMALL
GASTEIGER

@<TRIPOS>ATOM
      1 C           8.2329   41.7822   10.8309 C.ar    1  UNL1        0.1885
      2 C          10.4980   41.0083   10.7527 C.ar    1  UNL1        0.1606
      3 N           8.7669   41.5756   12.0539 N.ar    1  UNL1       -0.1248
      4 N          10.0271   41.1476   12.0106 N.ar    1  UNL1       -0.1332
      5 S           9.3407   41.4280    9.6056 S.2     1  UNL1       -0.0241
      6 C           5.7074   41.6374   11.2046 C.2     1  UNL1        0.2276
      7 O           5.7718   40.5783   11.8820 O.2     1  UNL1       -0.2747
      8 N           6.8861   42.2356   10.6513 N.am    1  UNL1       -0.2627
      9 H           6.7577   43.0365   10.0933 H       1  UNL1        0.1568
     10 C           4.3678   42.2573   10.9510 C.3     1  UNL1        0.0854
     11 C           2.6751   41.3518    9.3051 C.3     1  UNL1        0.0005
     12 C           3.9261   42.1932    9.4868 C.3     1  UNL1        0.0091
     13 C           3.7351   43.5737    8.8860 C.3     1  UNL1        0.0005
     14 S          12.1582   40.4616   10.3718 S.3     1  UNL1       -0.0865
     15 C          11.6706   39.6814    8.7969 C.3     1  UNL1        0.0680
     16 C          12.3495   40.3381    7.6019 C.3     1  UNL1        0.0594
     17 C          13.7412   40.8492    7.9553 C.3     1  UNL1        0.2063
     18 O          14.0793   41.9975    7.1814 O.3     1  UNL1       -0.4754
     19 C          15.3263   42.6306    7.2420 C.ar    1  UNL1        0.1386
     20 C          15.6020   43.6680    6.3449 C.ar    1  UNL1        0.0369
     21 C          16.8346   44.3269    6.3847 C.ar    1  UNL1        0.0031
     22 C          17.7998   43.9494    7.3223 C.ar    1  UNL1        0.0002
     23 C          17.5338   42.9115    8.2196 C.ar    1  UNL1        0.0031
     24 C          16.3016   42.2527    8.1798 C.ar    1  UNL1        0.0369
@<TRIPOS>BOND
     1    11    12    1
     2    12    13    1
     3    12    10    1
     4    10     6    1
     5     6     8   am
     6     1     5   ar
     7     2    14    1
     8     2     5   ar
     9    15    14    1
    10    15    16    1
    11    16    17    1
    12    17    18    1
    13    19    18    1
    14    20    21   ar
    15    22    23   ar
    16    24    19   ar
    17     8     1    1
    18     3     4   ar
    19     6     7    2
    20     1     3   ar
    21     2     4   ar
    22    19    20   ar
    23    21    22   ar
    24    23    24   ar
    25     8     9    1
@<TRIPOS>MOLECULE
MolPort-006-495-211 ChemDiv-V014-3900F MCULE-7172726103 PubChem-8094207
 24 25 0 0 0
SMALL
GASTEIGER

@<TRIPOS>ATOM
      1 C          11.5657   41.3401    6.5873 C.ar    1  UNL1        0.1885
      2 C           9.1780   41.2283    6.4390 C.ar    1  UNL1        0.1606
      3 N          11.1129   41.3050    5.3156 N.ar    1  UNL1       -0.1248
      4 N           9.7851   41.2453    5.2329 N.ar    1  UNL1       -0.1332
      5 S          10.2930   41.2948    7.6974 S.2     1  UNL1       -0.0241
      6 C          13.7816   42.5728    6.9170 C.2     1  UNL1        0.2276
      7 O          13.3167   43.6949    6.5859 O.2     1  UNL1       -0.2747
      8 N          12.9623   41.3974    6.9002 N.am    1  UNL1       -0.2627
      9 H          13.4023   40.5460    7.1258 H       1  UNL1        0.1568
     10 C          15.2251   42.4696    7.3026 C.3     1  UNL1        0.0854
     11 C          17.0807   43.9414    8.1886 C.3     1  UNL1        0.0005
     12 C          16.0041   43.7759    7.1305 C.3     1  UNL1        0.0091
     13 C          16.5955   43.9103    5.7392 C.3     1  UNL1        0.0005
     14 S           7.4032   41.1622    6.6533 S.3     1  UNL1       -0.0865
     15 C           7.1853   42.9574    6.4158 C.3     1  UNL1        0.0680
     16 C           7.4432   43.7370    7.6987 C.3     1  UNL1        0.0594
     17 C           6.1562   44.3159    8.2745 C.3     1  UNL1        0.2063
     18 O           5.1008   43.3584    8.2397 O.3     1  UNL1       -0.4754
     19 C           4.6844   42.6262    9.3577 C.ar    1  UNL1        0.1386
     20 C           3.3248   42.6092    9.6867 C.ar    1  UNL1        0.0369
     21 C           2.8748   41.8807   10.7919 C.ar    1  UNL1        0.0031
     22 C           3.7844   41.1659   11.5761 C.ar    1  UNL1        0.0002
     23 C           5.1448   41.1807   11.2567 C.ar    1  UNL1        0.0031
     24 C           5.5948   41.9091   10.1518 C.ar    1  UNL1        0.0369
@<TRIPOS>BOND
     1    11    12    1
     2    12    13    1
     3    12    10    1
     4    10     6    1
     5     6     8   am
     6     1     5   ar
     7     2    14    1
     8     2     5   ar
     9    15    14    1
    10    15    16    1
    11    16    17    1
    12    17    18    1
    13    19    18    1
    14    20    21   ar
    15    22    23   ar
    16    24    19   ar
    17     8     1    1
    18     3     4   ar
    19     6     7    2
    20     1     3   ar
    21     2     4   ar
    22    19    20   ar
    23    21    22   ar
    24    23    24   ar
    25     8     9    1
@<TRIPOS>MOLECULE
MolPort-006-495-211 ChemDiv-V014-3900F MCULE-7172726103 PubChem-8094207
 24 25 0 0 0
SMALL
GASTEIGER

@<TRIPOS>ATOM
      1 C           7.1647   40.4941    6.7706 C.ar    1  UNL1        0.1885
      2 C           9.1061   40.0296    5.4476 C.ar    1  UNL1        0.1606
      3 N           6.9495   39.5591    5.8205 N.ar    1  UNL1       -0.1248
      4 N           8.0296   39.2989    5.0863 N.ar    1  UNL1       -0.1332
      5 S           8.7576   41.0558    6.7348 S.2     1  UNL1       -0.0241
      6 C           6.3145   41.4133    9.0003 C.2     1  UNL1        0.2276
      7 O           7.4552   41.4443    9.5318 O.2     1  UNL1       -0.2747
      8 N           6.1326   40.9274    7.6646 N.am    1  UNL1       -0.2627
      9 H           5.2082   40.8873    7.3285 H       1  UNL1        0.1568
     10 C           5.1292   41.8640    9.7971 C.3     1  UNL1        0.0854
     11 C           3.9591   40.2595   11.3626 C.3     1  UNL1        0.0005
     12 C           4.0430   40.7955    9.9443 C.3     1  UNL1        0.0091
     13 C           2.6863   41.2909    9.4778 C.3     1  UNL1        0.0005
     14 S          10.7046   39.8960    4.6556 S.3     1  UNL1       -0.0865
     15 C          11.6285   40.2700    6.1831 C.3     1  UNL1        0.0680
     16 C          12.1950   41.6839    6.1742 C.3     1  UNL1        0.0594
     17 C          12.8449   42.0389    7.5064 C.3     1  UNL1        0.2063
     18 O          14.1710   41.5221    7.5856 O.3     1  UNL1       -0.4754
     19 C          15.3163   42.3268    7.5703 C.ar    1  UNL1        0.1386
     20 C          16.3917   41.9879    8.3982 C.ar    1  UNL1        0.0369
     21 C          17.5536   42.7657    8.4004 C.ar    1  UNL1        0.0031
     22 C          17.6448   43.8894    7.5745 C.ar    1  UNL1        0.0002
     23 C          16.5735   44.2372    6.7472 C.ar    1  UNL1        0.0031
     24 C          15.4119   43.4597    6.7450 C.ar    1  UNL1        0.0369
@<TRIPOS>BOND
     1    11    12    1
     2    12    13    1
     3    12    10    1
     4    10     6    1
     5     6     8   am
     6     1     5   ar
     7     2    14    1
     8     2     5   ar
     9    15    14    1
    10    15    16    1
    11    16    17    1
    12    17    18    1
    13    19    18    1
    14    20    21   ar
    15    22    23   ar
    16    24    19   ar
    17     8     1    1
    18     3     4   ar
    19     6     7    2
    20     1     3   ar
    21     2     4   ar
    22    19    20   ar
    23    21    22   ar
    24    23    24   ar
    25     8     9    1
@<TRIPOS>MOLECULE
MolPort-006-495-211 ChemDiv-V014-3900F MCULE-7172726103 PubChem-8094207
 24 25 0 0 0
SMALL
GASTEIGER

@<TRIPOS>ATOM
      1 C           7.0654   40.7288    6.4970 C.ar    1  UNL1        0.1885
      2 C           9.0722   39.9146    5.4747 C.ar    1  UNL1        0.1606
      3 N           6.9048   39.5351    5.8866 N.ar    1  UNL1       -0.1248
      4 N           8.0211   39.0811    5.3203 N.ar    1  UNL1       -0.1332
      5 S           8.6528   41.2883    6.3514 S.2     1  UNL1       -0.0241
      6 C           5.8696   41.6270    8.5712 C.2     1  UNL1        0.2276
      7 O           6.7280   41.1809    9.3768 O.2     1  UNL1       -0.2747
      8 N           5.9877   41.3989    7.1616 N.am    1  UNL1       -0.2627
      9 H           5.2568   41.7356    6.5943 H       1  UNL1        0.1568
     10 C           4.6916   42.3800    9.1081 C.3     1  UNL1        0.0854
     11 C           6.2119   44.3144    8.5243 C.3     1  UNL1        0.0005
     12 C           4.8303   43.9006    8.9995 C.3     1  UNL1        0.0091
     13 C           3.7557   44.5116    8.1190 C.3     1  UNL1        0.0005
     14 S          10.7080   39.5747    4.8352 S.3     1  UNL1       -0.0865
     15 C          11.4454   41.0617    5.5914 C.3     1  UNL1        0.0680
     16 C          12.1895   40.7360    6.8799 C.3     1  UNL1        0.0594
     17 C          13.0576   41.9015    7.3392 C.3     1  UNL1        0.2063
     18 O          14.3904   41.4746    7.6100 O.3     1  UNL1       -0.4754
     19 C          15.4951   42.3342    7.5965 C.ar    1  UNL1        0.1386
     20 C          16.5913   42.0391    8.4139 C.ar    1  UNL1        0.0369
     21 C          17.7141   42.8724    8.4174 C.ar    1  UNL1        0.0031
     22 C          17.7449   44.0081    7.6034 C.ar    1  UNL1        0.0002
     23 C          16.6524   44.3122    6.7867 C.ar    1  UNL1        0.0031
     24 C          15.5300   43.4792    6.7832 C.ar    1  UNL1        0.0369
@<TRIPOS>BOND
     1    11    12    1
     2    12    13    1
     3    12    10    1
     4    10     6    1
     5     6     8   am
     6     1     5   ar
     7     2    14    1
     8     2     5   ar
     9    15    14    1
    10    15    16    1
    11    16    17    1
    12    17    18    1
    13    19    18    1
    14    20    21   ar
    15    22    23   ar
    16    24    19   ar
    17     8     1    1
    18     3     4   ar
    19     6     7    2
    20     1     3   ar
    21     2     4   ar
    22    19    20   ar
    23    21    22   ar
    24    23    24   ar
    25     8     9    1
@<TRIPOS>MOLECULE
MolPort-006-495-211 ChemDiv-V014-3900F MCULE-7172726103 PubChem-8094207
 24 25 0 0 0
SMALL
GASTEIGER

@<TRIPOS>ATOM
      1 C          11.7944   41.9249    5.9049 C.ar    1  UNL1        0.1885
      2 C          10.2895   40.0653    6.0176 C.ar    1  UNL1        0.1606
      3 N          10.5332   42.2383    5.5379 N.ar    1  UNL1       -0.1248
      4 N           9.6958   41.2050    5.6028 N.ar    1  UNL1       -0.1332
      5 S          11.9251   40.2970    6.3374 S.2     1  UNL1       -0.0241
      6 C          14.0368   42.8554    6.7079 C.2     1  UNL1        0.2276
      7 O          14.2118   41.9531    7.5682 O.2     1  UNL1       -0.2747
      8 N          12.8541   42.8887    5.8996 N.am    1  UNL1       -0.2627
      9 H          12.7607   43.6482    5.2801 H       1  UNL1        0.1568
     10 C          15.0731   43.9260    6.5566 C.3     1  UNL1        0.0854
     11 C          17.4442   43.8314    5.6830 C.3     1  UNL1        0.0005
     12 C          16.5027   43.4401    6.8084 C.3     1  UNL1        0.0091
     13 C          17.0407   43.9139    8.1461 C.3     1  UNL1        0.0005
     14 S           9.4231   38.5127    6.2154 S.3     1  UNL1       -0.0865
     15 C           9.3088   38.6677    8.0292 C.3     1  UNL1        0.0680
     16 C          10.3531   37.8170    8.7403 C.3     1  UNL1        0.0594
     17 C          11.4948   38.6662    9.2866 C.3     1  UNL1        0.2063
     18 O          11.0880   39.3914   10.4444 O.3     1  UNL1       -0.4754
     19 C          10.7577   40.7515   10.4280 C.ar    1  UNL1        0.1386
     20 C           9.7291   41.2074   11.2593 C.ar    1  UNL1        0.0369
     21 C           9.3802   42.5613   11.2733 C.ar    1  UNL1        0.0031
     22 C          10.0583   43.4670   10.4529 C.ar    1  UNL1        0.0002
     23 C          11.0845   43.0192    9.6166 C.ar    1  UNL1        0.0031
     24 C          11.4333   41.6657    9.6025 C.ar    1  UNL1        0.0369
@<TRIPOS>BOND
     1    11    12    1
     2    12    13    1
     3    12    10    1
     4    10     6    1
     5     6     8   am
     6     1     5   ar
     7     2    14    1
     8     2     5   ar
     9    15    14    1
    10    15    16    1
    11    16    17    1
    12    17    18    1
    13    19    18    1
    14    20    21   ar
    15    22    23   ar
    16    24    19   ar
    17     8     1    1
    18     3     4   ar
    19     6     7    2
    20     1     3   ar
    21     2     4   ar
    22    19    20   ar
    23    21    22   ar
    24    23    24   ar
    25     8     9    1
@<TRIPOS>MOLECULE
MolPort-006-495-211 ChemDiv-V014-3900F MCULE-7172726103 PubChem-8094207
 24 25 0 0 0
SMALL
GASTEIGER

@<TRIPOS>ATOM
      1 C           7.0204   42.3434    7.7070 C.ar    1  UNL1        0.1885
      2 C           8.9135   41.4148    6.5714 C.ar    1  UNL1        0.1606
      3 N           7.1204   42.7467    6.4222 N.ar    1  UNL1       -0.1248
      4 N           8.1715   42.2286    5.7899 N.ar    1  UNL1       -0.1332
      5 S           8.2766   41.2935    8.1241 S.2     1  UNL1       -0.0241
      6 C           4.8337   42.0211    8.9928 C.2     1  UNL1        0.2276
      7 O           4.6462   40.8502    8.5700 O.2     1  UNL1       -0.2747
      8 N           5.9665   42.7892    8.5686 N.am    1  UNL1       -0.2627
      9 H           6.0263   43.7137    8.9018 H       1  UNL1        0.1568
     10 C           3.8330   42.6242    9.9297 C.3     1  UNL1        0.0854
     11 C           4.3131   40.7619   11.5716 C.3     1  UNL1        0.0005
     12 C           3.2424   41.6249   10.9275 C.3     1  UNL1        0.0091
     13 C           2.3953   42.3066   11.9864 C.3     1  UNL1        0.0005
     14 S          10.3803   40.5631    6.0029 S.3     1  UNL1       -0.0865
     15 C          11.4323   41.2310    7.3348 C.3     1  UNL1        0.0680
     16 C          12.5099   40.2417    7.7595 C.3     1  UNL1        0.0594
     17 C          13.7898   40.9512    8.1855 C.3     1  UNL1        0.2063
     18 O          14.1500   41.9666    7.2522 O.3     1  UNL1       -0.4754
     19 C          15.3875   42.6207    7.2611 C.ar    1  UNL1        0.1386
     20 C          15.6002   43.6772    6.3691 C.ar    1  UNL1        0.0369
     21 C          16.8219   44.3572    6.3583 C.ar    1  UNL1        0.0031
     22 C          17.8393   43.9817    7.2399 C.ar    1  UNL1        0.0002
     23 C          17.6365   42.9249    8.1315 C.ar    1  UNL1        0.0031
     24 C          16.4152   42.2450    8.1423 C.ar    1  UNL1        0.0369
@<TRIPOS>BOND
     1    11    12    1
     2    12    13    1
     3    12    10    1
     4    10     6    1
     5     6     8   am
     6     1     5   ar
     7     2    14    1
     8     2     5   ar
     9    15    14    1
    10    15    16    1
    11    16    17    1
    12    17    18    1
    13    19    18    1
    14    20    21   ar
    15    22    23   ar
    16    24    19   ar
    17     8     1    1
    18     3     4   ar
    19     6     7    2
    20     1     3   ar
    21     2     4   ar
    22    19    20   ar
    23    21    22   ar
    24    23    24   ar
    25     8     9    1
@<TRIPOS>MOLECULE
MolPort-006-495-211 ChemDiv-V014-3900F MCULE-7172726103 PubChem-8094207
 24 25 0 0 0
SMALL
GASTEIGER

@<TRIPOS>ATOM
      1 C          11.4316   41.2269    5.8408 C.ar    1  UNL1        0.1885
      2 C           9.5915   39.7209    6.1265 C.ar    1  UNL1        0.1606
      3 N          10.4790   41.3654    4.8938 N.ar    1  UNL1       -0.1248
      4 N           9.4547   40.5298    5.0539 N.ar    1  UNL1       -0.1332
      5 S          11.0276   40.0194    6.9511 S.2     1  UNL1       -0.0241
      6 C          13.1177   42.7984    6.9483 C.2     1  UNL1        0.2276
      7 O          12.4752   42.8821    8.0277 O.2     1  UNL1       -0.2747
      8 N          12.6223   42.0232    5.8497 N.am    1  UNL1       -0.2627
      9 H          13.1520   42.0395    5.0200 H       1  UNL1        0.1568
     10 C          14.4046   43.5516    6.8085 C.3     1  UNL1        0.0854
     11 C          16.8827   43.5571    7.3120 C.3     1  UNL1        0.0005
     12 C          15.6485   42.7026    7.0821 C.3     1  UNL1        0.0091
     13 C          15.4412   41.7395    8.2366 C.3     1  UNL1        0.0005
     14 S           8.3755   38.5003    6.6079 S.3     1  UNL1       -0.0865
     15 C           6.9623   39.6173    6.3215 C.3     1  UNL1        0.0680
     16 C           6.5520   40.3532    7.5904 C.3     1  UNL1        0.0594
     17 C           7.6278   41.3313    8.0474 C.3     1  UNL1        0.2063
     18 O           7.1001   42.2831    8.9679 O.3     1  UNL1       -0.4754
     19 C           5.9498   43.0415    8.7209 C.ar    1  UNL1        0.1386
     20 C           6.0268   44.1150    7.8273 C.ar    1  UNL1        0.0369
     21 C           4.8941   44.8872    7.5519 C.ar    1  UNL1        0.0031
     22 C           3.6772   44.5900    8.1717 C.ar    1  UNL1        0.0002
     23 C           3.5926   43.5217    9.0686 C.ar    1  UNL1        0.0031
     24 C           4.7249   42.7498    9.3440 C.ar    1  UNL1        0.0369
@<TRIPOS>BOND
     1    11    12    1
     2    12    13    1
     3    12    10    1
     4    10     6    1
     5     6     8   am
     6     1     5   ar
     7     2    14    1
     8     2     5   ar
     9    15    14    1
    10    15    16    1
    11    16    17    1
    12    17    18    1
    13    19    18    1
    14    20    21   ar
    15    22    23   ar
    16    24    19   ar
    17     8     1    1
    18     3     4   ar
    19     6     7    2
    20     1     3   ar
    21     2     4   ar
    22    19    20   ar
    23    21    22   ar
    24    23    24   ar
    25     8     9    1
