@<TRIPOS>MOLECULE
MolPort-004-981-861 CSSS09880942642 MCULE-9477330349 PubChem-45160585
 34 37 0 0 0
SMALL
GASTEIGER

@<TRIPOS>ATOM
      1 C          14.9269   36.7799    9.1625 C.ar    1  UNL1        0.0645
      2 C          15.8982   37.7308    9.5599 C.ar    1  UNL1        0.1147
      3 C          14.5005   39.4772    8.8498 C.ar    1  UNL1        0.1453
      4 C          13.5319   38.5930    8.4594 C.ar    1  UNL1        0.0505
      5 C          13.7233   37.2204    8.5863 C.ar    1  UNL1        0.0202
      6 C          12.5128   39.3493    7.9067 C.ar    1  UNL1        0.0757
      7 C          12.9352   40.6803    7.9668 C.ar    1  UNL1        0.1514
      8 N          15.6753   39.0680    9.3928 N.ar    1  UNL1       -0.2254
      9 N          14.1558   40.7466    8.5654 N.ar    1  UNL1       -0.3040
     10 C           9.9917   38.9727    7.8075 C.2     1  UNL1        0.2266
     11 C           8.8925   38.2019    7.1708 C.3     1  UNL1        0.0949
     12 N          11.3146   38.8819    7.2718 N.am    1  UNL1       -0.2825
     13 O           9.7326   39.7376    8.7730 O.2     1  UNL1       -0.2748
     14 H          11.4116   38.4604    6.3874 H       1  UNL1        0.1549
     15 C          12.1750   41.8424    7.4572 C.2     1  UNL1        0.3587
     16 O          11.8142   42.7594    8.2443 O.2     1  UNL1       -0.2432
     17 C          10.5190   41.7673    5.6364 C.3     1  UNL1        0.2560
     18 O          11.8517   41.9189    6.1010 O.3     1  UNL1       -0.4403
     19 N          15.1528   35.3760    9.3184 N.pl3   1  UNL1       -0.3278
     20 H          15.0967   34.9948   10.2244 H       1  UNL1        0.1472
     21 C          15.4612   34.4773    8.2128 C.3     1  UNL1        0.1140
     22 C          14.9896   31.5434    8.3885 C.3     1  UNL1        0.0308
     23 C          16.3231   32.1383    8.6918 C.ar    1  UNL1       -0.0242
     24 C          17.3669   31.2879    9.0711 C.ar    1  UNL1       -0.0045
     25 C          18.6310   31.8083    9.3601 C.ar    1  UNL1       -0.0003
     26 C          18.8574   33.1836    9.2704 C.ar    1  UNL1       -0.0003
     27 C          17.8195   34.0392    8.8923 C.ar    1  UNL1       -0.0029
     28 C          16.5501   33.5264    8.6007 C.ar    1  UNL1       -0.0066
     29 C          14.9869   41.9264    8.7789 C.3     1  UNL1        0.1371
     30 C          15.7389   42.2850    7.5066 C.3     1  UNL1        0.1378
     31 C          17.1581   42.6708    7.8464 C.3     1  UNL1        0.0341
     32 C          17.4442   43.8277    6.9379 C.3     1  UNL1        0.0346
     33 C          16.1584   44.0130    6.1668 C.3     1  UNL1        0.1422
     34 O          15.1261   43.3725    6.8663 O.3     1  UNL1       -0.3543
@<TRIPOS>BOND
     1    22    23    1
     2    24    25   ar
     3    26    27   ar
     4    28    23   ar
     5    21    28    1
     6    21    19    1
     7     2     8   ar
     8     3     4   ar
     9     4     6   ar
    10     5     1   ar
    11     6    12    1
    12     7     9   ar
    13     7    15    1
    14    29     9    1
    15    30    29    1
    16    30    31    1
    17    30    34    1
    18    31    32    1
    19    32    33    1
    20    33    34    1
    21    15    18    1
    22    17    18    1
    23    11    10    1
    24    19     1    1
    25     9     3   ar
    26    12    10   am
    27    23    24   ar
    28    25    26   ar
    29    27    28   ar
    30     1     2   ar
    31     3     8   ar
    32     4     5   ar
    33     6     7   ar
    34    15    16    2
    35    10    13    2
    36    19    20    1
    37    12    14    1
@<TRIPOS>MOLECULE
MolPort-004-981-861 CSSS09880942642 MCULE-9477330349 PubChem-45160585
 34 37 0 0 0
SMALL
GASTEIGER

@<TRIPOS>ATOM
      1 C          11.6299   40.7171    8.5966 C.ar    1  UNL1        0.0645
      2 C          11.5243   39.3911    9.0826 C.ar    1  UNL1        0.1147
      3 C          13.8314   39.3483    9.5103 C.ar    1  UNL1        0.1453
      4 C          13.9769   40.6311    9.0566 C.ar    1  UNL1        0.0505
      5 C          12.8864   41.3456    8.5698 C.ar    1  UNL1        0.0202
      6 C          15.3286   40.9201    9.1304 C.ar    1  UNL1        0.0757
      7 C          15.9513   39.7645    9.6102 C.ar    1  UNL1        0.1514
      8 N          12.6280   38.7208    9.5277 N.ar    1  UNL1       -0.2254
      9 N          15.0146   38.8081    9.8557 N.ar    1  UNL1       -0.3040
     10 C          15.8772   42.7066    7.3939 C.2     1  UNL1        0.2266
     11 C          16.8382   43.7636    6.9856 C.3     1  UNL1        0.0949
     12 N          16.0004   42.1072    8.6865 N.am    1  UNL1       -0.2825
     13 O          14.9351   42.3940    6.6197 O.2     1  UNL1       -0.2748
     14 H          16.6005   42.5492    9.3297 H       1  UNL1        0.1549
     15 C          17.4066   39.6014    9.8193 C.2     1  UNL1        0.3587
     16 O          18.2262   40.2206    9.0875 O.2     1  UNL1       -0.2432
     17 C          19.0908   38.0374   10.7027 C.3     1  UNL1        0.2560
     18 O          17.8717   38.7541   10.8268 O.3     1  UNL1       -0.4403
     19 N          10.4850   41.4261    8.1141 N.pl3   1  UNL1       -0.3278
     20 H          10.2805   41.3775    7.1523 H       1  UNL1        0.1472
     21 C           9.6036   42.2164    8.9648 C.3     1  UNL1        0.1140
     22 C           8.2783   44.7988    9.6252 C.3     1  UNL1        0.0308
     23 C           7.8058   43.9461    8.4966 C.ar    1  UNL1       -0.0242
     24 C           6.7106   44.3785    7.7416 C.ar    1  UNL1       -0.0045
     25 C           6.2411   43.6080    6.6747 C.ar    1  UNL1       -0.0003
     26 C           6.8662   42.3999    6.3573 C.ar    1  UNL1       -0.0003
     27 C           7.9606   41.9616    7.1071 C.ar    1  UNL1       -0.0029
     28 C           8.4377   42.7273    8.1774 C.ar    1  UNL1       -0.0066
     29 C          15.2294   37.4374   10.3069 C.3     1  UNL1        0.1371
     30 C          15.4988   36.5232    9.1218 C.3     1  UNL1        0.1378
     31 C          14.4008   35.4930    9.0144 C.3     1  UNL1        0.0341
     32 C          15.1235   34.2337    8.6432 C.3     1  UNL1        0.0346
     33 C          16.5746   34.6494    8.5845 C.3     1  UNL1        0.1422
     34 O          16.7197   35.8527    9.2891 O.3     1  UNL1       -0.3543
@<TRIPOS>BOND
     1    22    23    1
     2    24    25   ar
     3    26    27   ar
     4    28    23   ar
     5    21    28    1
     6    21    19    1
     7     2     8   ar
     8     3     4   ar
     9     4     6   ar
    10     5     1   ar
    11     6    12    1
    12     7     9   ar
    13     7    15    1
    14    29     9    1
    15    30    29    1
    16    30    31    1
    17    30    34    1
    18    31    32    1
    19    32    33    1
    20    33    34    1
    21    15    18    1
    22    17    18    1
    23    11    10    1
    24    19     1    1
    25     9     3   ar
    26    12    10   am
    27    23    24   ar
    28    25    26   ar
    29    27    28   ar
    30     1     2   ar
    31     3     8   ar
    32     4     5   ar
    33     6     7   ar
    34    15    16    2
    35    10    13    2
    36    19    20    1
    37    12    14    1
@<TRIPOS>MOLECULE
MolPort-004-981-861 CSSS09880942642 MCULE-9477330349 PubChem-45160585
 34 37 0 0 0
SMALL
GASTEIGER

@<TRIPOS>ATOM
      1 C          11.4999   41.0650    7.4786 C.ar    1  UNL1        0.0645
      2 C          12.3151   42.1732    7.1428 C.ar    1  UNL1        0.1147
      3 C          14.1366   41.1863    8.2455 C.ar    1  UNL1        0.1453
      4 C          13.3866   40.0930    8.5844 C.ar    1  UNL1        0.0505
      5 C          12.0440   40.0084    8.2283 C.ar    1  UNL1        0.0202
      6 C          14.2078   39.2763    9.3425 C.ar    1  UNL1        0.0757
      7 C          15.4321   39.9419    9.4498 C.ar    1  UNL1        0.1514
      8 N          13.6223   42.2229    7.5360 N.ar    1  UNL1       -0.2254
      9 N          15.3799   41.1111    8.7550 N.ar    1  UNL1       -0.3040
     10 C          13.8357   36.7535    9.4143 C.2     1  UNL1        0.2266
     11 C          13.1926   35.6306   10.1444 C.3     1  UNL1        0.0949
     12 N          13.8612   38.0542   10.0085 N.am    1  UNL1       -0.2825
     13 O          14.3980   36.5325    8.3100 O.2     1  UNL1       -0.2748
     14 H          13.6189   38.1162   10.9607 H       1  UNL1        0.1549
     15 C          16.6075   39.4538   10.2038 C.2     1  UNL1        0.3587
     16 O          16.4802   39.0688   11.3980 O.2     1  UNL1       -0.2432
     17 C          18.9375   38.6625   10.1152 C.3     1  UNL1        0.2560
     18 O          17.8617   39.4260    9.5910 O.3     1  UNL1       -0.4403
     19 N          10.1256   41.0062    7.0858 N.pl3   1  UNL1       -0.3278
     20 H           9.9183   40.9919    6.1235 H       1  UNL1        0.1472
     21 C           9.0145   40.9663    8.0287 C.3     1  UNL1        0.1140
     22 C           6.9061   42.5332    6.6284 C.3     1  UNL1        0.0308
     23 C           7.6527   43.0952    7.7907 C.ar    1  UNL1       -0.0242
     24 C           7.3494   44.3914    8.2200 C.ar    1  UNL1       -0.0045
     25 C           8.0257   44.9507    9.3072 C.ar    1  UNL1       -0.0003
     26 C           9.0097   44.2147    9.9713 C.ar    1  UNL1       -0.0003
     27 C           9.3181   42.9194    9.5481 C.ar    1  UNL1       -0.0029
     28 C           8.6453   42.3513    8.4599 C.ar    1  UNL1       -0.0066
     29 C          16.4107   42.1380    8.6489 C.3     1  UNL1        0.1371
     30 C          16.3882   42.7738    7.2676 C.3     1  UNL1        0.1378
     31 C          17.7948   42.8669    6.7277 C.3     1  UNL1        0.0341
     32 C          17.8324   44.2025    6.0490 C.3     1  UNL1        0.0346
     33 C          16.4479   44.7643    6.2718 C.3     1  UNL1        0.1422
     34 O          15.8533   44.0690    7.3340 O.3     1  UNL1       -0.3543
@<TRIPOS>BOND
     1    22    23    1
     2    24    25   ar
     3    26    27   ar
     4    28    23   ar
     5    21    28    1
     6    21    19    1
     7     2     8   ar
     8     3     4   ar
     9     4     6   ar
    10     5     1   ar
    11     6    12    1
    12     7     9   ar
    13     7    15    1
    14    29     9    1
    15    30    29    1
    16    30    31    1
    17    30    34    1
    18    31    32    1
    19    32    33    1
    20    33    34    1
    21    15    18    1
    22    17    18    1
    23    11    10    1
    24    19     1    1
    25     9     3   ar
    26    12    10   am
    27    23    24   ar
    28    25    26   ar
    29    27    28   ar
    30     1     2   ar
    31     3     8   ar
    32     4     5   ar
    33     6     7   ar
    34    15    16    2
    35    10    13    2
    36    19    20    1
    37    12    14    1
@<TRIPOS>MOLECULE
MolPort-004-981-861 CSSS09880942642 MCULE-9477330349 PubChem-45160585
 34 37 0 0 0
SMALL
GASTEIGER

@<TRIPOS>ATOM
      1 C          11.9063   42.2205    7.9672 C.ar    1  UNL1        0.0645
      2 C          11.3551   41.9984    6.6817 C.ar    1  UNL1        0.1147
      3 C           9.2007   41.8965    7.6067 C.ar    1  UNL1        0.1453
      4 C           9.6904   42.1170    8.8654 C.ar    1  UNL1        0.0505
      5 C          11.0564   42.2664    9.0853 C.ar    1  UNL1        0.0202
      6 C           8.6043   42.0624    9.7217 C.ar    1  UNL1        0.0757
      7 C           7.4909   41.7792    8.9258 C.ar    1  UNL1        0.1514
      8 N          10.0091   41.8329    6.5183 N.ar    1  UNL1       -0.2254
      9 N           7.8701   41.6954    7.6214 N.ar    1  UNL1       -0.3040
     10 C           9.2952   41.2569   12.0416 C.2     1  UNL1        0.2266
     11 C           8.9832   41.2928   13.4938 C.3     1  UNL1        0.0949
     12 N           8.6077   42.1427   11.1539 N.am    1  UNL1       -0.2825
     13 O          10.1991   40.4882   11.6215 O.2     1  UNL1       -0.2748
     14 H           8.0901   42.8736   11.5626 H       1  UNL1        0.1549
     15 C           6.1094   41.5963    9.4221 C.2     1  UNL1        0.3587
     16 O           5.1326   41.6925    8.6300 O.2     1  UNL1       -0.2432
     17 C           4.7013   40.6905   11.2277 C.3     1  UNL1        0.2560
     18 O           5.8885   41.3225   10.7732 O.3     1  UNL1       -0.4403
     19 N          13.3152   42.3813    8.1549 N.pl3   1  UNL1       -0.3278
     20 H          13.6230   42.9212    8.9185 H       1  UNL1        0.1472
     21 C          14.3216   41.7916    7.2805 C.3     1  UNL1        0.1140
     22 C          14.7815   43.9897    5.3266 C.3     1  UNL1        0.0308
     23 C          15.7938   43.6463    6.3665 C.ar    1  UNL1       -0.0242
     24 C          16.9849   44.3783    6.4112 C.ar    1  UNL1       -0.0045
     25 C          17.9557   44.0876    7.3732 C.ar    1  UNL1       -0.0003
     26 C          17.7390   43.0622    8.2965 C.ar    1  UNL1       -0.0003
     27 C          16.5517   42.3268    8.2578 C.ar    1  UNL1       -0.0029
     28 C          15.5737   42.6114    7.2977 C.ar    1  UNL1       -0.0066
     29 C           7.0435   41.3602    6.4669 C.3     1  UNL1        0.1371
     30 C           7.3594   39.9559    5.9760 C.3     1  UNL1        0.1378
     31 C           7.9941   39.1587    7.0898 C.3     1  UNL1        0.0341
     32 C           9.0655   38.3686    6.4017 C.3     1  UNL1        0.0346
     33 C           8.9606   38.7931    4.9557 C.3     1  UNL1        0.1422
     34 O           8.2576   40.0047    4.8995 O.3     1  UNL1       -0.3543
@<TRIPOS>BOND
     1    22    23    1
     2    24    25   ar
     3    26    27   ar
     4    28    23   ar
     5    21    28    1
     6    21    19    1
     7     2     8   ar
     8     3     4   ar
     9     4     6   ar
    10     5     1   ar
    11     6    12    1
    12     7     9   ar
    13     7    15    1
    14    29     9    1
    15    30    29    1
    16    30    31    1
    17    30    34    1
    18    31    32    1
    19    32    33    1
    20    33    34    1
    21    15    18    1
    22    17    18    1
    23    11    10    1
    24    19     1    1
    25     9     3   ar
    26    12    10   am
    27    23    24   ar
    28    25    26   ar
    29    27    28   ar
    30     1     2   ar
    31     3     8   ar
    32     4     5   ar
    33     6     7   ar
    34    15    16    2
    35    10    13    2
    36    19    20    1
    37    12    14    1
@<TRIPOS>MOLECULE
MolPort-004-981-861 CSSS09880942642 MCULE-9477330349 PubChem-45160585
 34 37 0 0 0
SMALL
GASTEIGER

@<TRIPOS>ATOM
      1 C          10.1362   42.0494    8.4174 C.ar    1  UNL1        0.0645
      2 C           9.9710   41.3251    9.6231 C.ar    1  UNL1        0.1147
      3 C          12.2763   40.8914    9.6958 C.ar    1  UNL1        0.1453
      4 C          12.4818   41.5894    8.5368 C.ar    1  UNL1        0.0505
      5 C          11.4179   42.1719    7.8545 C.ar    1  UNL1        0.0202
      6 C          13.8312   41.4790    8.2489 C.ar    1  UNL1        0.0757
      7 C          14.3829   40.6805    9.2546 C.ar    1  UNL1        0.1514
      8 N          11.0428   40.7496   10.2442 N.ar    1  UNL1       -0.2254
      9 N          13.4162   40.3384   10.1494 N.ar    1  UNL1       -0.3040
     10 C          14.3871   43.2611    6.5102 C.2     1  UNL1        0.2266
     11 C          14.9538   43.5220    5.1617 C.3     1  UNL1        0.0949
     12 N          14.5264   41.9616    7.0907 N.am    1  UNL1       -0.2825
     13 O          13.8425   44.2017    7.1453 O.2     1  UNL1       -0.2748
     14 H          15.1565   41.3422    6.6563 H       1  UNL1        0.1549
     15 C          15.8009   40.2671    9.3366 C.2     1  UNL1        0.3587
     16 O          16.1179   39.0550    9.1914 O.2     1  UNL1       -0.2432
     17 C          17.4773   41.8792    8.5281 C.3     1  UNL1        0.2560
     18 O          16.7888   41.2228    9.5817 O.3     1  UNL1       -0.4403
     19 N           9.0208   42.6452    7.7485 N.pl3   1  UNL1       -0.3278
     20 H           8.8816   43.6143    7.8517 H       1  UNL1        0.1472
     21 C           8.0786   41.8997    6.9230 C.3     1  UNL1        0.1140
     22 C           7.1207   39.1341    6.3795 C.3     1  UNL1        0.0308
     23 C           8.3602   39.6687    5.7455 C.ar    1  UNL1       -0.0242
     24 C           9.0830   38.8399    4.8812 C.ar    1  UNL1       -0.0045
     25 C          10.2477   39.3067    4.2661 C.ar    1  UNL1       -0.0003
     26 C          10.6949   40.6066    4.5128 C.ar    1  UNL1       -0.0003
     27 C           9.9781   41.4401    5.3751 C.ar    1  UNL1       -0.0029
     28 C           8.8103   40.9808    5.9952 C.ar    1  UNL1       -0.0066
     29 C          13.5403   39.4705   11.3155 C.3     1  UNL1        0.1371
     30 C          13.0840   38.0592   10.9794 C.3     1  UNL1        0.1378
     31 C          14.1138   37.0645   11.4577 C.3     1  UNL1        0.0341
     32 C          14.1647   36.0436   10.3618 C.3     1  UNL1        0.0346
     33 C          13.1697   36.5505    9.3443 C.3     1  UNL1        0.1422
     34 O          12.9361   37.9104    9.5923 O.3     1  UNL1       -0.3543
@<TRIPOS>BOND
     1    22    23    1
     2    24    25   ar
     3    26    27   ar
     4    28    23   ar
     5    21    28    1
     6    21    19    1
     7     2     8   ar
     8     3     4   ar
     9     4     6   ar
    10     5     1   ar
    11     6    12    1
    12     7     9   ar
    13     7    15    1
    14    29     9    1
    15    30    29    1
    16    30    31    1
    17    30    34    1
    18    31    32    1
    19    32    33    1
    20    33    34    1
    21    15    18    1
    22    17    18    1
    23    11    10    1
    24    19     1    1
    25     9     3   ar
    26    12    10   am
    27    23    24   ar
    28    25    26   ar
    29    27    28   ar
    30     1     2   ar
    31     3     8   ar
    32     4     5   ar
    33     6     7   ar
    34    15    16    2
    35    10    13    2
    36    19    20    1
    37    12    14    1
@<TRIPOS>MOLECULE
MolPort-004-981-861 CSSS09880942642 MCULE-9477330349 PubChem-45160585
 34 37 0 0 0
SMALL
GASTEIGER

@<TRIPOS>ATOM
      1 C           7.2627   43.3094    8.9618 C.ar    1  UNL1        0.0645
      2 C           7.7452   43.1674    7.6379 C.ar    1  UNL1        0.1147
      3 C           9.5292   41.8545    8.4130 C.ar    1  UNL1        0.1453
      4 C           9.0934   41.9594    9.7059 C.ar    1  UNL1        0.0505
      5 C           7.9605   42.7039   10.0205 C.ar    1  UNL1        0.0202
      6 C          10.0200   41.2891   10.4857 C.ar    1  UNL1        0.0757
      7 C          11.0060   40.8243    9.6109 C.ar    1  UNL1        0.1514
      8 N           8.8765   42.4465    7.3807 N.ar    1  UNL1       -0.2254
      9 N          10.6827   41.1659    8.3337 N.ar    1  UNL1       -0.3040
     10 C           8.9243   41.0882   12.7807 C.2     1  UNL1        0.2266
     11 C           9.1036   41.2731   14.2439 C.3     1  UNL1        0.0949
     12 N          10.0590   41.1893   11.9160 N.am    1  UNL1       -0.2825
     13 O           7.7878   40.7897   12.3292 O.2     1  UNL1       -0.2748
     14 H          10.9470   41.1905   12.3410 H       1  UNL1        0.1549
     15 C          12.2183   40.0759   10.0090 C.2     1  UNL1        0.3587
     16 O          12.1515   38.8388   10.2448 O.2     1  UNL1       -0.2432
     17 C          14.4864   40.5710    9.1880 C.3     1  UNL1        0.2560
     18 O          13.4379   40.7449   10.1291 O.3     1  UNL1       -0.4403
     19 N           6.0874   44.0732    9.2475 N.pl3   1  UNL1       -0.3278
     20 H           6.1963   44.9399    9.7016 H       1  UNL1        0.1472
     21 C           4.7378   43.6419    8.9048 C.3     1  UNL1        0.1140
     22 C           5.3007   40.7717    8.3513 C.3     1  UNL1        0.0308
     23 C           4.5446   41.1983    9.5639 C.ar    1  UNL1       -0.0242
     24 C           4.0906   40.2171   10.4515 C.ar    1  UNL1       -0.0045
     25 C           3.3813   40.5785   11.5998 C.ar    1  UNL1       -0.0003
     26 C           3.1230   41.9250   11.8663 C.ar    1  UNL1       -0.0003
     27 C           3.5733   42.9106   10.9842 C.ar    1  UNL1       -0.0029
     28 C           4.2847   42.5575    9.8316 C.ar    1  UNL1       -0.0066
     29 C          11.4576   40.9330    7.1197 C.3     1  UNL1        0.1371
     30 C          10.9844   39.6679    6.4209 C.3     1  UNL1        0.1378
     31 C          10.7700   39.9476    4.9531 C.3     1  UNL1        0.0341
     32 C           9.5228   39.1866    4.6199 C.3     1  UNL1        0.0346
     33 C           9.1234   38.5488    5.9297 C.3     1  UNL1        0.1422
     34 O           9.7696   39.2311    6.9700 O.3     1  UNL1       -0.3543
@<TRIPOS>BOND
     1    22    23    1
     2    24    25   ar
     3    26    27   ar
     4    28    23   ar
     5    21    28    1
     6    21    19    1
     7     2     8   ar
     8     3     4   ar
     9     4     6   ar
    10     5     1   ar
    11     6    12    1
    12     7     9   ar
    13     7    15    1
    14    29     9    1
    15    30    29    1
    16    30    31    1
    17    30    34    1
    18    31    32    1
    19    32    33    1
    20    33    34    1
    21    15    18    1
    22    17    18    1
    23    11    10    1
    24    19     1    1
    25     9     3   ar
    26    12    10   am
    27    23    24   ar
    28    25    26   ar
    29    27    28   ar
    30     1     2   ar
    31     3     8   ar
    32     4     5   ar
    33     6     7   ar
    34    15    16    2
    35    10    13    2
    36    19    20    1
    37    12    14    1
@<TRIPOS>MOLECULE
MolPort-004-981-861 CSSS09880942642 MCULE-9477330349 PubChem-45160585
 34 37 0 0 0
SMALL
GASTEIGER

@<TRIPOS>ATOM
      1 C          11.5081   41.1927    8.2420 C.ar    1  UNL1        0.0645
      2 C          12.2982   42.2953    7.8350 C.ar    1  UNL1        0.1147
      3 C          14.2264   41.2323    8.6473 C.ar    1  UNL1        0.1453
      4 C          13.5019   40.1432    9.0490 C.ar    1  UNL1        0.0505
      5 C          12.1217   40.0989    8.8759 C.ar    1  UNL1        0.0202
      6 C          14.3971   39.2833    9.6614 C.ar    1  UNL1        0.0757
      7 C          15.6410   39.9194    9.6231 C.ar    1  UNL1        0.1514
      8 N          13.6473   42.3040    8.0485 N.ar    1  UNL1       -0.2254
      9 N          15.5248   41.1136    8.9806 N.ar    1  UNL1       -0.3040
     10 C          13.8781   36.7857    9.6928 C.2     1  UNL1        0.2266
     11 C          13.3243   35.6597   10.4884 C.3     1  UNL1        0.0949
     12 N          14.1129   38.0454   10.3280 N.am    1  UNL1       -0.2825
     13 O          14.1851   36.5990    8.4864 O.2     1  UNL1       -0.2748
     14 H          14.0762   38.0646   11.3116 H       1  UNL1        0.1549
     15 C          16.8947   39.3807   10.1941 C.2     1  UNL1        0.3587
     16 O          16.9268   38.9796   11.3895 O.2     1  UNL1       -0.2432
     17 C          19.2390   38.7031    9.8644 C.3     1  UNL1        0.2560
     18 O          18.0465   39.3227    9.4070 O.3     1  UNL1       -0.4403
     19 N          10.0923   41.1761    8.0378 N.pl3   1  UNL1       -0.3278
     20 H           9.5227   40.8344    8.7644 H       1  UNL1        0.1472
     21 C           9.4448   41.6361    6.8154 C.3     1  UNL1        0.1140
     22 C           7.4973   39.4422    6.3104 C.3     1  UNL1        0.0308
     23 C           8.7262   39.6003    5.4804 C.ar    1  UNL1       -0.0242
     24 C           8.9601   38.6873    4.4469 C.ar    1  UNL1       -0.0045
     25 C          10.0992   38.8050    3.6461 C.ar    1  UNL1       -0.0003
     26 C          11.0104   39.8384    3.8755 C.ar    1  UNL1       -0.0003
     27 C          10.7833   40.7541    4.9061 C.ar    1  UNL1       -0.0029
     28 C           9.6448   40.6437    5.7129 C.ar    1  UNL1       -0.0066
     29 C          16.5574   42.1223    8.7691 C.3     1  UNL1        0.1371
     30 C          16.4508   42.7075    7.3695 C.3     1  UNL1        0.1378
     31 C          17.8229   42.7852    6.7450 C.3     1  UNL1        0.0341
     32 C          17.8139   44.0954    6.0175 C.3     1  UNL1        0.0346
     33 C          16.4420   44.6608    6.3008 C.3     1  UNL1        0.1422
     34 O          15.9141   44.0026    7.4205 O.3     1  UNL1       -0.3543
@<TRIPOS>BOND
     1    22    23    1
     2    24    25   ar
     3    26    27   ar
     4    28    23   ar
     5    21    28    1
     6    21    19    1
     7     2     8   ar
     8     3     4   ar
     9     4     6   ar
    10     5     1   ar
    11     6    12    1
    12     7     9   ar
    13     7    15    1
    14    29     9    1
    15    30    29    1
    16    30    31    1
    17    30    34    1
    18    31    32    1
    19    32    33    1
    20    33    34    1
    21    15    18    1
    22    17    18    1
    23    11    10    1
    24    19     1    1
    25     9     3   ar
    26    12    10   am
    27    23    24   ar
    28    25    26   ar
    29    27    28   ar
    30     1     2   ar
    31     3     8   ar
    32     4     5   ar
    33     6     7   ar
    34    15    16    2
    35    10    13    2
    36    19    20    1
    37    12    14    1
@<TRIPOS>MOLECULE
MolPort-004-981-861 CSSS09880942642 MCULE-9477330349 PubChem-45160585
 34 37 0 0 0
SMALL
GASTEIGER

@<TRIPOS>ATOM
      1 C          11.5770   42.2453    8.3612 C.ar    1  UNL1        0.0645
      2 C          10.8223   42.0545    7.1782 C.ar    1  UNL1        0.1147
      3 C           8.8516   41.8982    8.4429 C.ar    1  UNL1        0.1453
      4 C           9.5412   42.0875    9.6095 C.ar    1  UNL1        0.0505
      5 C          10.9236   42.2474    9.6053 C.ar    1  UNL1        0.0202
      6 C           8.6123   41.9940   10.6315 C.ar    1  UNL1        0.0757
      7 C           7.3847   41.7205   10.0220 C.ar    1  UNL1        0.1514
      8 N           9.4692   41.8770    7.2343 N.ar    1  UNL1       -0.2254
      9 N           7.5433   41.6801    8.6708 N.ar    1  UNL1       -0.3040
     10 C           9.7789   41.2106   12.7606 C.2     1  UNL1        0.2266
     11 C           9.7187   41.1655   14.2445 C.3     1  UNL1        0.0949
     12 N           8.8522   42.0319   12.0452 N.am    1  UNL1       -0.2825
     13 O          10.6797   40.5703   12.1579 O.2     1  UNL1       -0.2748
     14 H           8.3318   42.6820   12.5704 H       1  UNL1        0.1549
     15 C           6.1058   41.5057   10.7337 C.2     1  UNL1        0.3587
     16 O           5.8683   42.1175   11.8107 O.2     1  UNL1       -0.2432
     17 C           3.9144   40.3885   10.8483 C.3     1  UNL1        0.2560
     18 O           5.1628   40.6176   10.2126 O.3     1  UNL1       -0.4403
     19 N          12.9964   42.4181    8.3185 N.pl3   1  UNL1       -0.3278
     20 H          13.4235   42.9299    9.0431 H       1  UNL1        0.1472
     21 C          13.8467   41.8800    7.2638 C.3     1  UNL1        0.1140
     22 C          14.5814   44.1633    5.5009 C.3     1  UNL1        0.0308
     23 C          15.5530   43.5849    6.4733 C.ar    1  UNL1       -0.0242
     24 C          16.8375   44.1338    6.5456 C.ar    1  UNL1       -0.0045
     25 C          17.7741   43.6204    7.4465 C.ar    1  UNL1       -0.0003
     26 C          17.4295   42.5546    8.2807 C.ar    1  UNL1       -0.0003
     27 C          16.1483   42.0012    8.2140 C.ar    1  UNL1       -0.0029
     28 C          15.2037   42.5094    7.3146 C.ar    1  UNL1       -0.0066
     29 C           6.5395   41.3688    7.6590 C.3     1  UNL1        0.1371
     30 C           5.7559   42.6174    7.2851 C.3     1  UNL1        0.1378
     31 C           6.6749   43.8150    7.2899 C.3     1  UNL1        0.0341
     32 C           5.8434   44.9047    7.8956 C.3     1  UNL1        0.0346
     33 C           4.5248   44.2324    8.1983 C.3     1  UNL1        0.1422
     34 O           4.7277   42.8453    8.2119 O.3     1  UNL1       -0.3543
@<TRIPOS>BOND
     1    22    23    1
     2    24    25   ar
     3    26    27   ar
     4    28    23   ar
     5    21    28    1
     6    21    19    1
     7     2     8   ar
     8     3     4   ar
     9     4     6   ar
    10     5     1   ar
    11     6    12    1
    12     7     9   ar
    13     7    15    1
    14    29     9    1
    15    30    29    1
    16    30    31    1
    17    30    34    1
    18    31    32    1
    19    32    33    1
    20    33    34    1
    21    15    18    1
    22    17    18    1
    23    11    10    1
    24    19     1    1
    25     9     3   ar
    26    12    10   am
    27    23    24   ar
    28    25    26   ar
    29    27    28   ar
    30     1     2   ar
    31     3     8   ar
    32     4     5   ar
    33     6     7   ar
    34    15    16    2
    35    10    13    2
    36    19    20    1
    37    12    14    1
@<TRIPOS>MOLECULE
MolPort-004-981-861 CSSS09880942642 MCULE-9477330349 PubChem-45160585
 34 37 0 0 0
SMALL
GASTEIGER

@<TRIPOS>ATOM
      1 C           6.9564   43.0341    8.5666 C.ar    1  UNL1        0.0645
      2 C           7.6415   43.1282    7.3307 C.ar    1  UNL1        0.1147
      3 C           9.3614   41.7658    8.1636 C.ar    1  UNL1        0.1453
      4 C           8.7291   41.6419    9.3708 C.ar    1  UNL1        0.0505
      5 C           7.5198   42.2862    9.6143 C.ar    1  UNL1        0.0202
      6 C           9.5644   40.8836   10.1729 C.ar    1  UNL1        0.0757
      7 C          10.6972   40.6023    9.4041 C.ar    1  UNL1        0.1514
      8 N           8.8391   42.4976    7.1467 N.ar    1  UNL1       -0.2254
      9 N          10.5520   41.1385    8.1616 N.ar    1  UNL1       -0.3040
     10 C           8.9890   41.4523   12.5923 C.2     1  UNL1        0.2266
     11 C           9.1227   41.0382   14.0129 C.3     1  UNL1        0.0949
     12 N           9.3917   40.5511   11.5575 N.am    1  UNL1       -0.2825
     13 O           8.4714   42.5667   12.3185 O.2     1  UNL1       -0.2748
     14 H           9.5662   39.6181   11.8190 H       1  UNL1        0.1549
     15 C          11.8769   39.8395    9.8673 C.2     1  UNL1        0.3587
     16 O          12.5732   40.2685   10.8275 O.2     1  UNL1       -0.2432
     17 C          13.5686   38.2034    9.1428 C.3     1  UNL1        0.2560
     18 O          12.2222   38.6440    9.2339 O.3     1  UNL1       -0.4403
     19 N           5.7085   43.7008    8.7781 N.pl3   1  UNL1       -0.3278
     20 H           5.7244   44.6681    8.9605 H       1  UNL1        0.1472
     21 C           4.4148   43.0301    8.7390 C.3     1  UNL1        0.1140
     22 C           2.1635   41.0866    8.8646 C.3     1  UNL1        0.0308
     23 C           3.2657   41.0691    9.8691 C.ar    1  UNL1       -0.0242
     24 C           3.2267   40.1155   10.8917 C.ar    1  UNL1       -0.0045
     25 C           4.2430   40.0663   11.8493 C.ar    1  UNL1       -0.0003
     26 C           5.3049   40.9716   11.7880 C.ar    1  UNL1       -0.0003
     27 C           5.3505   41.9269   10.7694 C.ar    1  UNL1       -0.0029
     28 C           4.3367   41.9831    9.8058 C.ar    1  UNL1       -0.0066
     29 C          11.5144   41.1346    7.0652 C.3     1  UNL1        0.1371
     30 C          12.6595   42.0912    7.3590 C.3     1  UNL1        0.1378
     31 C          12.9612   42.9156    6.1309 C.3     1  UNL1        0.0341
     32 C          14.4574   42.9976    6.1108 C.3     1  UNL1        0.0346
     33 C          14.8830   42.2005    7.3214 C.3     1  UNL1        0.1422
     34 O          13.8158   41.3775    7.7076 O.3     1  UNL1       -0.3543
@<TRIPOS>BOND
     1    22    23    1
     2    24    25   ar
     3    26    27   ar
     4    28    23   ar
     5    21    28    1
     6    21    19    1
     7     2     8   ar
     8     3     4   ar
     9     4     6   ar
    10     5     1   ar
    11     6    12    1
    12     7     9   ar
    13     7    15    1
    14    29     9    1
    15    30    29    1
    16    30    31    1
    17    30    34    1
    18    31    32    1
    19    32    33    1
    20    33    34    1
    21    15    18    1
    22    17    18    1
    23    11    10    1
    24    19     1    1
    25     9     3   ar
    26    12    10   am
    27    23    24   ar
    28    25    26   ar
    29    27    28   ar
    30     1     2   ar
    31     3     8   ar
    32     4     5   ar
    33     6     7   ar
    34    15    16    2
    35    10    13    2
    36    19    20    1
    37    12    14    1
@<TRIPOS>MOLECULE
MolPort-004-981-861 CSSS09880942642 MCULE-9477330349 PubChem-45160585
 34 37 0 0 0
SMALL
GASTEIGER

@<TRIPOS>ATOM
      1 C           8.2098   41.6983   11.1302 C.ar    1  UNL1        0.0645
      2 C           9.4384   41.4766   11.7989 C.ar    1  UNL1        0.1147
      3 C          10.5963   41.6705    9.7668 C.ar    1  UNL1        0.1453
      4 C           9.4329   41.8964    9.0827 C.ar    1  UNL1        0.0505
      5 C           8.2059   41.8982    9.7393 C.ar    1  UNL1        0.0202
      6 C           9.7810   42.0107    7.7479 C.ar    1  UNL1        0.0757
      7 C          11.1638   41.8178    7.6851 C.ar    1  UNL1        0.1514
      8 N          10.6163   41.4593   11.1074 N.ar    1  UNL1       -0.2254
      9 N          11.6565   41.6252    8.9391 N.ar    1  UNL1       -0.3040
     10 C           7.7108   42.9447    6.5859 C.2     1  UNL1        0.2266
     11 C           6.7674   42.7850    5.4492 C.3     1  UNL1        0.0949
     12 N           8.9074   42.1622    6.6203 N.am    1  UNL1       -0.2825
     13 O           7.4718   43.8058    7.4724 O.2     1  UNL1       -0.2748
     14 H           9.1538   41.6844    5.7955 H       1  UNL1        0.1549
     15 C          11.9721   41.8207    6.4462 C.2     1  UNL1        0.3587
     16 O          11.8274   40.9043    5.5919 O.2     1  UNL1       -0.2432
     17 C          14.2906   42.6501    6.4537 C.3     1  UNL1        0.2560
     18 O          12.9020   42.8390    6.2273 O.3     1  UNL1       -0.4403
     19 N           6.9675   41.7048   11.8394 N.pl3   1  UNL1       -0.3278
     20 H           6.7725   42.4705   12.4267 H       1  UNL1        0.1472
     21 C           5.9736   40.6428   11.7423 C.3     1  UNL1        0.1140
     22 C           5.6079   40.7379    8.7896 C.3     1  UNL1        0.0308
     23 C           4.5460   41.2133    9.7225 C.ar    1  UNL1       -0.0242
     24 C           3.3572   41.7178    9.1851 C.ar    1  UNL1       -0.0045
     25 C           2.3382   42.1698   10.0277 C.ar    1  UNL1       -0.0003
     26 C           2.5038   42.1186   11.4136 C.ar    1  UNL1       -0.0003
     27 C           3.6885   41.6160   11.9575 C.ar    1  UNL1       -0.0029
     28 C           4.7143   41.1609   11.1209 C.ar    1  UNL1       -0.0066
     29 C          13.0315   41.3297    9.3268 C.3     1  UNL1        0.1371
     30 C          13.1920   39.8482    9.6306 C.3     1  UNL1        0.1378
     31 C          13.5871   39.6654   11.0760 C.3     1  UNL1        0.0341
     32 C          14.5996   38.5614   11.0358 C.3     1  UNL1        0.0346
     33 C          14.7070   38.2178    9.5687 C.3     1  UNL1        0.1422
     34 O          14.1946   39.2893    8.8240 O.3     1  UNL1       -0.3543
@<TRIPOS>BOND
     1    22    23    1
     2    24    25   ar
     3    26    27   ar
     4    28    23   ar
     5    21    28    1
     6    21    19    1
     7     2     8   ar
     8     3     4   ar
     9     4     6   ar
    10     5     1   ar
    11     6    12    1
    12     7     9   ar
    13     7    15    1
    14    29     9    1
    15    30    29    1
    16    30    31    1
    17    30    34    1
    18    31    32    1
    19    32    33    1
    20    33    34    1
    21    15    18    1
    22    17    18    1
    23    11    10    1
    24    19     1    1
    25     9     3   ar
    26    12    10   am
    27    23    24   ar
    28    25    26   ar
    29    27    28   ar
    30     1     2   ar
    31     3     8   ar
    32     4     5   ar
    33     6     7   ar
    34    15    16    2
    35    10    13    2
    36    19    20    1
    37    12    14    1
