@<TRIPOS>MOLECULE
MolPort-017-264-013 72334134 CHEMBL4522810 CSC034450290 MCULE-6466233192 ZINC000072334134 ZINC72334134
 16 16 0 0 0
SMALL
GASTEIGER

@<TRIPOS>ATOM
      1 C          14.7478   43.7878    6.4288 C.ar    1  UNL1        0.1787
      2 C          14.4584   42.5466    6.9683 C.ar    1  UNL1        0.0613
      3 C          13.2080   42.2946    6.4415 C.ar    1  UNL1        0.1291
      4 N          12.7914   43.3035    5.6548 N.ar    1  UNL1       -0.2626
      5 N          13.7404   44.2230    5.6476 N.ar    1  UNL1       -0.1650
      6 H          11.9346   43.3485    5.1720 H       1  UNL1        0.1903
      7 C          11.0757   40.9209    6.3602 C.2     1  UNL1        0.2276
      8 C          10.4099   39.6340    6.6891 C.3     1  UNL1        0.0950
      9 O          10.4189   41.8290    5.7857 O.2     1  UNL1       -0.2747
     10 N          12.4527   41.1074    6.7019 N.am    1  UNL1       -0.2697
     11 H          12.9153   40.3627    7.1500 H       1  UNL1        0.1562
     12 C          15.9811   44.5446    6.6648 C.2     1  UNL1        0.3609
     13 O          16.4154   45.3265    5.7755 O.2     1  UNL1       -0.2431
     14 O          16.6648   44.3938    7.8730 O.3     1  UNL1       -0.4444
     15 C          17.7833   42.3172    8.3004 C.3     1  UNL1        0.0513
     16 C          17.9431   43.7795    7.9403 C.3     1  UNL1        0.2089
@<TRIPOS>BOND
     1    15    16    1
     2    16    14    1
     3    12    14    1
     4    12     1    1
     5     1     2   ar
     6     3     4   ar
     7     3    10    1
     8     8     7    1
     9     4     5   ar
    10    10     7   am
    11    12    13    2
    12     1     5   ar
    13     2     3   ar
    14     7     9    2
    15     4     6    1
    16    10    11    1
@<TRIPOS>MOLECULE
MolPort-017-264-013 72334134 CHEMBL4522810 CSC034450290 MCULE-6466233192 ZINC000072334134 ZINC72334134
 16 16 0 0 0
SMALL
GASTEIGER

@<TRIPOS>ATOM
      1 C          11.1047   41.5936    7.5631 C.ar    1  UNL1        0.1787
      2 C          12.3304   42.0173    8.0463 C.ar    1  UNL1        0.0613
      3 C          12.9997   42.3315    6.8811 C.ar    1  UNL1        0.1291
      4 N          12.2335   42.1118    5.7972 N.ar    1  UNL1       -0.2626
      5 N          11.0663   41.6572    6.2181 N.ar    1  UNL1       -0.1650
      6 H          12.4950   42.2626    4.8601 H       1  UNL1        0.1903
      7 C          14.7534   44.0119    6.1452 C.2     1  UNL1        0.2276
      8 C          16.1827   44.4161    6.1793 C.3     1  UNL1        0.0950
      9 O          13.9255   44.7161    5.5090 O.2     1  UNL1       -0.2747
     10 N          14.3410   42.8285    6.8359 N.am    1  UNL1       -0.2697
     11 H          15.0320   42.3177    7.3163 H       1  UNL1        0.1562
     12 C           9.9848   41.1325    8.3893 C.2     1  UNL1        0.3609
     13 O          10.2040   40.3781    9.3761 O.2     1  UNL1       -0.2431
     14 O           8.6840   41.5330    8.0770 O.3     1  UNL1       -0.4444
     15 C           6.8888   41.6187    9.6631 C.3     1  UNL1        0.0513
     16 C           7.9456   42.4069    8.9178 C.3     1  UNL1        0.2089
@<TRIPOS>BOND
     1    15    16    1
     2    16    14    1
     3    12    14    1
     4    12     1    1
     5     1     2   ar
     6     3     4   ar
     7     3    10    1
     8     8     7    1
     9     4     5   ar
    10    10     7   am
    11    12    13    2
    12     1     5   ar
    13     2     3   ar
    14     7     9    2
    15     4     6    1
    16    10    11    1
@<TRIPOS>MOLECULE
MolPort-017-264-013 72334134 CHEMBL4522810 CSC034450290 MCULE-6466233192 ZINC000072334134 ZINC72334134
 16 16 0 0 0
SMALL
GASTEIGER

@<TRIPOS>ATOM
      1 C          10.4022   41.4231    6.8580 C.ar    1  UNL1        0.1787
      2 C          11.4674   41.8833    7.6123 C.ar    1  UNL1        0.0613
      3 C          12.4477   42.0354    6.6529 C.ar    1  UNL1        0.1291
      4 N          11.9998   41.6933    5.4312 N.ar    1  UNL1       -0.2626
      5 N          10.7398   41.3161    5.5583 N.ar    1  UNL1       -0.1650
      6 H          12.5172   41.7194    4.5940 H       1  UNL1        0.1903
      7 C          14.3655   43.6713    6.3592 C.2     1  UNL1        0.2276
      8 C          15.7557   44.0403    6.7314 C.3     1  UNL1        0.0950
      9 O          13.7283   44.3949    5.5491 O.2     1  UNL1       -0.2747
     10 N          13.7733   42.4991    6.9277 N.am    1  UNL1       -0.2697
     11 H          14.3190   41.9720    7.5551 H       1  UNL1        0.1562
     12 C           9.0753   41.0902    7.3852 C.2     1  UNL1        0.3609
     13 O           8.1189   41.8973    7.2280 O.2     1  UNL1       -0.2431
     14 O           8.8811   39.8814    8.0567 O.3     1  UNL1       -0.4444
     15 C          10.6120   38.3098    8.5859 C.3     1  UNL1        0.0513
     16 C           9.4984   38.6769    7.6275 C.3     1  UNL1        0.2089
@<TRIPOS>BOND
     1    15    16    1
     2    16    14    1
     3    12    14    1
     4    12     1    1
     5     1     2   ar
     6     3     4   ar
     7     3    10    1
     8     8     7    1
     9     4     5   ar
    10    10     7   am
    11    12    13    2
    12     1     5   ar
    13     2     3   ar
    14     7     9    2
    15     4     6    1
    16    10    11    1
@<TRIPOS>MOLECULE
MolPort-017-264-013 72334134 CHEMBL4522810 CSC034450290 MCULE-6466233192 ZINC000072334134 ZINC72334134
 16 16 0 0 0
SMALL
GASTEIGER

@<TRIPOS>ATOM
      1 C          10.4550   42.3716    9.9979 C.ar    1  UNL1        0.1787
      2 C           9.3694   41.5638   10.2880 C.ar    1  UNL1        0.0613
      3 C           8.5409   42.4364   10.9636 C.ar    1  UNL1        0.1291
      4 N           9.0907   43.6602   11.0653 N.ar    1  UNL1       -0.2626
      5 N          10.2699   43.6195   10.4704 N.ar    1  UNL1       -0.1650
      6 H           8.6874   44.4441   11.5037 H       1  UNL1        0.1903
      7 C           6.1576   41.6022   10.7088 C.2     1  UNL1        0.2276
      8 C           4.8767   41.2672   11.3828 C.3     1  UNL1        0.0950
      9 O           6.2566   41.4611    9.4613 O.2     1  UNL1       -0.2747
     10 N           7.2582   42.0800   11.4887 N.am    1  UNL1       -0.2697
     11 H           7.1228   42.1703   12.4596 H       1  UNL1        0.1562
     12 C          11.6564   41.9443    9.2744 C.2     1  UNL1        0.3609
     13 O          12.2575   42.7597    8.5229 O.2     1  UNL1       -0.2431
     14 O          12.1258   40.6377    9.4237 O.3     1  UNL1       -0.4444
     15 C          13.3229   39.6241   11.2363 C.3     1  UNL1        0.0513
     16 C          13.4279   40.3598    9.9167 C.3     1  UNL1        0.2089
@<TRIPOS>BOND
     1    15    16    1
     2    16    14    1
     3    12    14    1
     4    12     1    1
     5     1     2   ar
     6     3     4   ar
     7     3    10    1
     8     8     7    1
     9     4     5   ar
    10    10     7   am
    11    12    13    2
    12     1     5   ar
    13     2     3   ar
    14     7     9    2
    15     4     6    1
    16    10    11    1
@<TRIPOS>MOLECULE
MolPort-017-264-013 72334134 CHEMBL4522810 CSC034450290 MCULE-6466233192 ZINC000072334134 ZINC72334134
 16 16 0 0 0
SMALL
GASTEIGER

@<TRIPOS>ATOM
      1 C          12.4564   41.0564    7.2665 C.ar    1  UNL1        0.1787
      2 C          13.5967   41.5185    7.9001 C.ar    1  UNL1        0.0613
      3 C          14.0929   42.4114    6.9722 C.ar    1  UNL1        0.1291
      4 N          13.3108   42.4729    5.8791 N.ar    1  UNL1       -0.2626
      5 N          12.3030   41.6378    6.0610 N.ar    1  UNL1       -0.1650
      6 H          13.4620   43.0378    5.0871 H       1  UNL1        0.1903
      7 C          16.4708   42.7020    7.8098 C.2     1  UNL1        0.2276
      8 C          17.6475   43.6010    7.9307 C.3     1  UNL1        0.0950
      9 O          16.5293   41.5377    8.2861 O.2     1  UNL1       -0.2747
     10 N          15.2899   43.1743    7.1540 N.am    1  UNL1       -0.2697
     11 H          15.3018   44.0934    6.8013 H       1  UNL1        0.1562
     12 C          11.5268   40.0655    7.8173 C.2     1  UNL1        0.3609
     13 O          11.9428   39.2091    8.6446 O.2     1  UNL1       -0.2431
     14 O          10.1877   40.0785    7.4217 O.3     1  UNL1       -0.4444
     15 C           9.0147   39.6116    5.3840 C.3     1  UNL1        0.0513
     16 C           9.6250   39.0328    6.6434 C.3     1  UNL1        0.2089
@<TRIPOS>BOND
     1    15    16    1
     2    16    14    1
     3    12    14    1
     4    12     1    1
     5     1     2   ar
     6     3     4   ar
     7     3    10    1
     8     8     7    1
     9     4     5   ar
    10    10     7   am
    11    12    13    2
    12     1     5   ar
    13     2     3   ar
    14     7     9    2
    15     4     6    1
    16    10    11    1
@<TRIPOS>MOLECULE
MolPort-017-264-013 72334134 CHEMBL4522810 CSC034450290 MCULE-6466233192 ZINC000072334134 ZINC72334134
 16 16 0 0 0
SMALL
GASTEIGER

@<TRIPOS>ATOM
      1 C           7.5580   43.9573    8.9026 C.ar    1  UNL1        0.1787
      2 C           7.9804   42.6933    9.2756 C.ar    1  UNL1        0.0613
      3 C           9.0918   42.9817   10.0412 C.ar    1  UNL1        0.1291
      4 N           9.3095   44.3074   10.1154 N.ar    1  UNL1       -0.2626
      5 N           8.3644   44.9077    9.4136 N.ar    1  UNL1       -0.1650
      6 H          10.0406   44.7500   10.6040 H       1  UNL1        0.1903
      7 C          11.0833   41.4099   10.1030 C.2     1  UNL1        0.2276
      8 C          11.8403   40.3884   10.8717 C.3     1  UNL1        0.0950
      9 O          11.4868   41.7491    8.9592 O.2     1  UNL1       -0.2747
     10 N           9.9077   41.9916   10.6751 N.am    1  UNL1       -0.2697
     11 H           9.6400   41.6877   11.5725 H       1  UNL1        0.1562
     12 C           6.3909   44.2442    8.0629 C.2     1  UNL1        0.3609
     13 O           6.4519   44.0480    6.8184 O.2     1  UNL1       -0.2431
     14 O           5.2208   44.7321    8.6482 O.3     1  UNL1       -0.4444
     15 C           3.9108   42.9168    9.5053 C.3     1  UNL1        0.0513
     16 C           3.9776   44.0596    8.5137 C.3     1  UNL1        0.2089
@<TRIPOS>BOND
     1    15    16    1
     2    16    14    1
     3    12    14    1
     4    12     1    1
     5     1     2   ar
     6     3     4   ar
     7     3    10    1
     8     8     7    1
     9     4     5   ar
    10    10     7   am
    11    12    13    2
    12     1     5   ar
    13     2     3   ar
    14     7     9    2
    15     4     6    1
    16    10    11    1
@<TRIPOS>MOLECULE
MolPort-017-264-013 72334134 CHEMBL4522810 CSC034450290 MCULE-6466233192 ZINC000072334134 ZINC72334134
 16 16 0 0 0
SMALL
GASTEIGER

@<TRIPOS>ATOM
      1 C           8.4128   43.2924    9.6886 C.ar    1  UNL1        0.1787
      2 C           8.8319   41.9856    9.8671 C.ar    1  UNL1        0.0613
      3 C          10.0036   42.1593   10.5752 C.ar    1  UNL1        0.1291
      4 N          10.2573   43.4617   10.7977 N.ar    1  UNL1       -0.2626
      5 N           9.2770   44.1591   10.2511 N.ar    1  UNL1       -0.1650
      6 H          11.0329   43.8287   11.2803 H       1  UNL1        0.1903
      7 C          12.0902   40.7232   10.4196 C.2     1  UNL1        0.2276
      8 C          12.8618   39.5829   10.9781 C.3     1  UNL1        0.0950
      9 O          12.5464   41.3543    9.4298 O.2     1  UNL1       -0.2747
     10 N          10.8408   41.0856   11.0158 N.am    1  UNL1       -0.2697
     11 H          10.5341   40.5564   11.7872 H       1  UNL1        0.1562
     12 C           7.1936   43.6995    8.9834 C.2     1  UNL1        0.3609
     13 O           6.8711   44.9182    8.9434 O.2     1  UNL1       -0.2431
     14 O           6.3993   42.7342    8.3611 O.3     1  UNL1       -0.4444
     15 C           6.8714   43.1809    6.0539 C.3     1  UNL1        0.0513
     16 C           6.7796   42.1255    7.1361 C.3     1  UNL1        0.2089
@<TRIPOS>BOND
     1    15    16    1
     2    16    14    1
     3    12    14    1
     4    12     1    1
     5     1     2   ar
     6     3     4   ar
     7     3    10    1
     8     8     7    1
     9     4     5   ar
    10    10     7   am
    11    12    13    2
    12     1     5   ar
    13     2     3   ar
    14     7     9    2
    15     4     6    1
    16    10    11    1
@<TRIPOS>MOLECULE
MolPort-017-264-013 72334134 CHEMBL4522810 CSC034450290 MCULE-6466233192 ZINC000072334134 ZINC72334134
 16 16 0 0 0
SMALL
GASTEIGER

@<TRIPOS>ATOM
      1 C           9.5811   41.4727    6.7481 C.ar    1  UNL1        0.1787
      2 C          10.7001   41.5366    7.5599 C.ar    1  UNL1        0.0613
      3 C          11.7089   41.7182    6.6359 C.ar    1  UNL1        0.1291
      4 N          11.2269   41.7584    5.3804 N.ar    1  UNL1       -0.2626
      5 N           9.9161   41.6069    5.4503 N.ar    1  UNL1       -0.1650
      6 H          11.7552   41.8788    4.5585 H       1  UNL1        0.1903
      7 C          13.9318   42.9420    6.5935 C.2     1  UNL1        0.2276
      8 C          15.3567   42.9510    7.0142 C.3     1  UNL1        0.0950
      9 O          13.4824   43.8976    5.9073 O.2     1  UNL1       -0.2747
     10 N          13.0932   41.8471    6.9752 N.am    1  UNL1       -0.2697
     11 H          13.4991   41.1283    7.5116 H       1  UNL1        0.1562
     12 C           8.2056   41.2837    7.2191 C.2     1  UNL1        0.3609
     13 O           7.5091   40.3402    6.7548 O.2     1  UNL1       -0.2431
     14 O           7.6778   42.1501    8.1787 O.3     1  UNL1       -0.4444
     15 C           6.6348   43.8317    6.8258 C.3     1  UNL1        0.0513
     16 C           6.4620   42.8523    7.9680 C.3     1  UNL1        0.2089
@<TRIPOS>BOND
     1    15    16    1
     2    16    14    1
     3    12    14    1
     4    12     1    1
     5     1     2   ar
     6     3     4   ar
     7     3    10    1
     8     8     7    1
     9     4     5   ar
    10    10     7   am
    11    12    13    2
    12     1     5   ar
    13     2     3   ar
    14     7     9    2
    15     4     6    1
    16    10    11    1
@<TRIPOS>MOLECULE
MolPort-017-264-013 72334134 CHEMBL4522810 CSC034450290 MCULE-6466233192 ZINC000072334134 ZINC72334134
 16 16 0 0 0
SMALL
GASTEIGER

@<TRIPOS>ATOM
      1 C          10.4757   42.4897    9.6244 C.ar    1  UNL1        0.1787
      2 C           9.1572   42.2559    9.2750 C.ar    1  UNL1        0.0613
      3 C           8.5531   43.4404    9.6443 C.ar    1  UNL1        0.1291
      4 N           9.4408   44.3045   10.1692 N.ar    1  UNL1       -0.2626
      5 N          10.6250   43.7181   10.1568 N.ar    1  UNL1       -0.1650
      6 H           9.2438   45.2097   10.5023 H       1  UNL1        0.1903
      7 C           6.5076   43.9665    8.2374 C.2     1  UNL1        0.2276
      8 C           5.0463   44.2345    8.2155 C.3     1  UNL1        0.0950
      9 O           7.1537   43.9677    7.1564 O.2     1  UNL1       -0.2747
     10 N           7.1568   43.7115    9.4868 N.am    1  UNL1       -0.2697
     11 H           6.6010   43.7234   10.2993 H       1  UNL1        0.1562
     12 C          11.5779   41.5392    9.4473 C.2     1  UNL1        0.3609
     13 O          11.4823   40.3746    9.9221 O.2     1  UNL1       -0.2431
     14 O          12.7245   41.9312    8.7535 O.3     1  UNL1       -0.4444
     15 C          14.2606   42.1327    6.9243 C.3     1  UNL1        0.0513
     16 C          13.0066   41.4610    7.4438 C.3     1  UNL1        0.2089
@<TRIPOS>BOND
     1    15    16    1
     2    16    14    1
     3    12    14    1
     4    12     1    1
     5     1     2   ar
     6     3     4   ar
     7     3    10    1
     8     8     7    1
     9     4     5   ar
    10    10     7   am
    11    12    13    2
    12     1     5   ar
    13     2     3   ar
    14     7     9    2
    15     4     6    1
    16    10    11    1
@<TRIPOS>MOLECULE
MolPort-017-264-013 72334134 CHEMBL4522810 CSC034450290 MCULE-6466233192 ZINC000072334134 ZINC72334134
 16 16 0 0 0
SMALL
GASTEIGER

@<TRIPOS>ATOM
      1 C           7.8168   39.4700    6.5190 C.ar    1  UNL1        0.1787
      2 C           7.7811   40.6375    7.2612 C.ar    1  UNL1        0.0613
      3 C           6.4540   41.0001    7.1532 C.ar    1  UNL1        0.1291
      4 N           5.7609   40.1197    6.4084 N.ar    1  UNL1       -0.2626
      5 N           6.6011   39.1775    6.0179 N.ar    1  UNL1       -0.1650
      6 H           4.8015   40.1686    6.1932 H       1  UNL1        0.1903
      7 C           6.0984   43.5083    7.3055 C.2     1  UNL1        0.2276
      8 C           5.4507   44.6326    8.0292 C.3     1  UNL1        0.0950
      9 O           6.8214   43.7512    6.3034 O.2     1  UNL1       -0.2747
     10 N           5.8898   42.1672    7.7593 N.am    1  UNL1       -0.2697
     11 H           5.3148   42.0378    8.5479 H       1  UNL1        0.1562
     12 C           9.0096   38.6472    6.2957 C.2     1  UNL1        0.3609
     13 O           9.7640   38.3625    7.2656 O.2     1  UNL1       -0.2431
     14 O           9.3003   38.1849    5.0106 O.3     1  UNL1       -0.4444
     15 C          10.7420   39.9235    4.2079 C.3     1  UNL1        0.0513
     16 C           9.5209   39.0735    3.9254 C.3     1  UNL1        0.2089
@<TRIPOS>BOND
     1    15    16    1
     2    16    14    1
     3    12    14    1
     4    12     1    1
     5     1     2   ar
     6     3     4   ar
     7     3    10    1
     8     8     7    1
     9     4     5   ar
    10    10     7   am
    11    12    13    2
    12     1     5   ar
    13     2     3   ar
    14     7     9    2
    15     4     6    1
    16    10    11    1
