@<TRIPOS>MOLECULE
MolPort-008-381-923 55412984 CSSS00159806312 MCULE-6001361176 PubChem-46999781 ZINC000055412984 ZINC55412984
 25 26 0 0 0
SMALL
GASTEIGER

@<TRIPOS>ATOM
      1 C          13.7399   41.8870    7.1320 C.ar    1  UNL1        0.0503
      2 C          12.6720   41.8605    6.2285 C.ar    1  UNL1        0.0144
      3 C          11.5976   40.9889    6.4282 C.ar    1  UNL1       -0.0025
      4 C          11.5845   40.1336    7.5347 C.ar    1  UNL1       -0.0130
      5 C          12.6461   40.1584    8.4447 C.ar    1  UNL1       -0.0025
      6 C          13.7198   41.0304    8.2436 C.ar    1  UNL1        0.0144
      7 C          14.7677   44.0176    6.1453 C.2     1  UNL1        0.2261
      8 O          13.6907   44.4208    5.6298 O.2     1  UNL1       -0.2748
      9 N          14.8226   42.7966    6.8936 N.am    1  UNL1       -0.2839
     10 H          15.6940   42.5575    7.2845 H       1  UNL1        0.1549
     11 C          16.0093   44.8305    5.9909 C.3     1  UNL1        0.0854
     12 C          17.9576   44.0449    7.3390 C.3     1  UNL1        0.0005
     13 C          17.2482   43.9486    6.0011 C.3     1  UNL1        0.0096
     14 C          10.4300   39.2154    7.7606 C.3     1  UNL1        0.1116
     15 C           9.1479   39.8414    7.3024 C.2     1  UNL1        0.2303
     16 O           8.6966   39.5393    6.1639 O.2     1  UNL1       -0.2745
     17 N           8.4441   40.7877    8.1279 N.am    1  UNL1       -0.2768
     18 C           7.2755   41.4745    7.5744 C.3     1  UNL1        0.0757
     19 C           7.6859   42.6914    6.7587 C.3     1  UNL1        0.0198
     20 C           6.9572   43.8787    7.3579 C.3     1  UNL1        0.0018
     21 C           5.8371   43.3030    8.1955 C.3     1  UNL1        0.0018
     22 C           6.3435   41.9607    8.6686 C.3     1  UNL1        0.0198
     23 C           8.9988   41.2236    9.4125 C.3     1  UNL1        0.1198
     24 C           9.8247   42.4620    9.2557 C.2     1  UNL1       -0.0047
     25 C          10.2125   43.1674   10.3147 C.2     1  UNL1       -0.0031
@<TRIPOS>BOND
     1    12    13    1
     2    13    11    1
     3    11     7    1
     4     7     9   am
     5     2     3   ar
     6     4     5   ar
     7    14     4    1
     8    14    15    1
     9    15    17   am
    10    23    17    1
    11    23    24    1
    12    18    17    1
    13    18    19    1
    14    19    20    1
    15    20    21    1
    16    21    22    1
    17    22    18    1
    18     6     1   ar
    19     9     1    1
    20     7     8    2
    21     1     2   ar
    22     3     4   ar
    23    15    16    2
    24    24    25    2
    25     5     6   ar
    26     9    10    1
@<TRIPOS>MOLECULE
MolPort-008-381-923 55412984 CSSS00159806312 MCULE-6001361176 PubChem-46999781 ZINC000055412984 ZINC55412984
 25 26 0 0 0
SMALL
GASTEIGER

@<TRIPOS>ATOM
      1 C          11.9518   41.8202    7.2748 C.ar    1  UNL1        0.0503
      2 C          11.1045   42.1091    8.3499 C.ar    1  UNL1        0.0144
      3 C           9.7223   42.1929    8.1590 C.ar    1  UNL1       -0.0025
      4 C           9.1763   41.9900    6.8876 C.ar    1  UNL1       -0.0130
      5 C          10.0168   41.6958    5.8092 C.ar    1  UNL1       -0.0025
      6 C          11.3987   41.6124    6.0017 C.ar    1  UNL1        0.0144
      7 C          14.3437   42.7377    7.1949 C.2     1  UNL1        0.2261
      8 O          14.0135   43.8373    6.6753 O.2     1  UNL1       -0.2748
      9 N          13.3639   41.7408    7.5114 N.am    1  UNL1       -0.2839
     10 H          13.6946   40.9160    7.9353 H       1  UNL1        0.1549
     11 C          15.7785   42.4687    7.5037 C.3     1  UNL1        0.0854
     12 C          17.3455   43.8839    6.1725 C.3     1  UNL1        0.0005
     13 C          16.5945   43.7518    7.4844 C.3     1  UNL1        0.0096
     14 C           7.6995   42.0603    6.6843 C.3     1  UNL1        0.1116
     15 C           6.9745   41.2776    7.7366 C.2     1  UNL1        0.2303
     16 O           6.9981   40.0176    7.6815 O.2     1  UNL1       -0.2745
     17 N           6.2432   41.9387    8.7856 N.am    1  UNL1       -0.2768
     18 C           5.4375   41.1295    9.7020 C.3     1  UNL1        0.0757
     19 C           3.9945   41.0336    9.2299 C.3     1  UNL1        0.0198
     20 C           3.1322   41.5353   10.3720 C.3     1  UNL1        0.0018
     21 C           4.0088   41.5019   11.6041 C.3     1  UNL1        0.0018
     22 C           5.4148   41.7232   11.0982 C.3     1  UNL1        0.0198
     23 C           6.1245   43.3993    8.8143 C.3     1  UNL1        0.1198
     24 C           4.8577   43.8545    8.1599 C.2     1  UNL1       -0.0047
     25 C           4.7697   45.0559    7.5956 C.2     1  UNL1       -0.0031
@<TRIPOS>BOND
     1    12    13    1
     2    13    11    1
     3    11     7    1
     4     7     9   am
     5     2     3   ar
     6     4     5   ar
     7    14     4    1
     8    14    15    1
     9    15    17   am
    10    23    17    1
    11    23    24    1
    12    18    17    1
    13    18    19    1
    14    19    20    1
    15    20    21    1
    16    21    22    1
    17    22    18    1
    18     6     1   ar
    19     9     1    1
    20     7     8    2
    21     1     2   ar
    22     3     4   ar
    23    15    16    2
    24    24    25    2
    25     5     6   ar
    26     9    10    1
@<TRIPOS>MOLECULE
MolPort-008-381-923 55412984 CSSS00159806312 MCULE-6001361176 PubChem-46999781 ZINC000055412984 ZINC55412984
 25 26 0 0 0
SMALL
GASTEIGER

@<TRIPOS>ATOM
      1 C           8.7869   42.3476    8.1691 C.ar    1  UNL1        0.0503
      2 C           9.9678   42.3956    8.9178 C.ar    1  UNL1        0.0144
      3 C          11.1993   42.1231    8.3153 C.ar    1  UNL1       -0.0025
      4 C          11.2587   41.7975    6.9565 C.ar    1  UNL1       -0.0130
      5 C          10.0828   41.7526    6.2008 C.ar    1  UNL1       -0.0025
      6 C           8.8521   42.0252    6.8047 C.ar    1  UNL1        0.0144
      7 C           6.3554   41.8345    8.7965 C.2     1  UNL1        0.2261
      8 O           6.3204   40.7366    8.1786 O.2     1  UNL1       -0.2748
      9 N           7.5435   42.6354    8.8229 N.am    1  UNL1       -0.2839
     10 H           7.5018   43.4697    9.3439 H       1  UNL1        0.1549
     11 C           5.1451   42.3074    9.5298 C.3     1  UNL1        0.0854
     12 C           2.7981   41.7730   10.1905 C.3     1  UNL1        0.0005
     13 C           4.0742   41.2286    9.5758 C.3     1  UNL1        0.0096
     14 C          12.5738   41.5244    6.3062 C.3     1  UNL1        0.1116
     15 C          13.5011   42.6917    6.4585 C.2     1  UNL1        0.2303
     16 O          13.2154   43.7749    5.8788 O.2     1  UNL1       -0.2745
     17 N          14.7101   42.5866    7.2328 N.am    1  UNL1       -0.2768
     18 C          15.6487   43.7104    7.2313 C.3     1  UNL1        0.0757
     19 C          16.2226   43.9480    5.8426 C.3     1  UNL1        0.0198
     20 C          17.7311   43.8766    5.9807 C.3     1  UNL1        0.0018
     21 C          18.0241   44.0342    7.4561 C.3     1  UNL1        0.0018
     22 C          16.8189   43.4616    8.1645 C.3     1  UNL1        0.0198
     23 C          15.1083   41.3117    7.8362 C.3     1  UNL1        0.1198
     24 C          14.3383   41.0402    9.0907 C.2     1  UNL1       -0.0047
     25 C          14.5342   39.9249    9.7887 C.2     1  UNL1       -0.0031
@<TRIPOS>BOND
     1    12    13    1
     2    13    11    1
     3    11     7    1
     4     7     9   am
     5     2     3   ar
     6     4     5   ar
     7    14     4    1
     8    14    15    1
     9    15    17   am
    10    23    17    1
    11    23    24    1
    12    18    17    1
    13    18    19    1
    14    19    20    1
    15    20    21    1
    16    21    22    1
    17    22    18    1
    18     6     1   ar
    19     9     1    1
    20     7     8    2
    21     1     2   ar
    22     3     4   ar
    23    15    16    2
    24    24    25    2
    25     5     6   ar
    26     9    10    1
@<TRIPOS>MOLECULE
MolPort-008-381-923 55412984 CSSS00159806312 MCULE-6001361176 PubChem-46999781 ZINC000055412984 ZINC55412984
 25 26 0 0 0
SMALL
GASTEIGER

@<TRIPOS>ATOM
      1 C          11.1891   41.4780    9.3455 C.ar    1  UNL1        0.0503
      2 C          10.7302   41.0161    8.1072 C.ar    1  UNL1        0.0144
      3 C           9.6135   41.6010    7.5033 C.ar    1  UNL1       -0.0025
      4 C           8.9443   42.6533    8.1364 C.ar    1  UNL1       -0.0130
      5 C           9.4005   43.1235    9.3720 C.ar    1  UNL1       -0.0025
      6 C          10.5173   42.5376    9.9745 C.ar    1  UNL1        0.0144
      7 C          13.6275   40.6884    9.3256 C.2     1  UNL1        0.2261
      8 O          13.8678   41.1297    8.1699 O.2     1  UNL1       -0.2748
      9 N          12.3392   40.8533    9.9316 N.am    1  UNL1       -0.2839
     10 H          12.2328   40.5013   10.8448 H       1  UNL1        0.1549
     11 C          14.7050   39.9942   10.0893 C.3     1  UNL1        0.0854
     12 C          14.7975   38.4786   12.0704 C.3     1  UNL1        0.0005
     13 C          14.1999   38.6926   10.6922 C.3     1  UNL1        0.0096
     14 C           7.7632   43.2921    7.4855 C.3     1  UNL1        0.1116
     15 C           6.6407   43.4676    8.4628 C.2     1  UNL1        0.2303
     16 O           6.3537   44.6310    8.8566 O.2     1  UNL1       -0.2745
     17 N           5.9082   42.3357    8.9672 N.am    1  UNL1       -0.2768
     18 C           4.9188   42.5501   10.0249 C.3     1  UNL1        0.0757
     19 C           5.1484   41.6052   11.1949 C.3     1  UNL1        0.0198
     20 C           3.8513   40.8462   11.3979 C.3     1  UNL1        0.0018
     21 C           2.7867   41.6342   10.6677 C.3     1  UNL1        0.0018
     22 C           3.5063   42.3111    9.5249 C.3     1  UNL1        0.0198
     23 C           6.2861   40.9692    8.5957 C.3     1  UNL1        0.1198
     24 C           5.8401   40.6409    7.2052 C.2     1  UNL1       -0.0047
     25 C           6.5916   39.8932    6.4016 C.2     1  UNL1       -0.0031
@<TRIPOS>BOND
     1    12    13    1
     2    13    11    1
     3    11     7    1
     4     7     9   am
     5     2     3   ar
     6     4     5   ar
     7    14     4    1
     8    14    15    1
     9    15    17   am
    10    23    17    1
    11    23    24    1
    12    18    17    1
    13    18    19    1
    14    19    20    1
    15    20    21    1
    16    21    22    1
    17    22    18    1
    18     6     1   ar
    19     9     1    1
    20     7     8    2
    21     1     2   ar
    22     3     4   ar
    23    15    16    2
    24    24    25    2
    25     5     6   ar
    26     9    10    1
@<TRIPOS>MOLECULE
MolPort-008-381-923 55412984 CSSS00159806312 MCULE-6001361176 PubChem-46999781 ZINC000055412984 ZINC55412984
 25 26 0 0 0
SMALL
GASTEIGER

@<TRIPOS>ATOM
      1 C          11.5418   41.7042    9.4355 C.ar    1  UNL1        0.0503
      2 C          11.1834   43.0023    9.8150 C.ar    1  UNL1        0.0144
      3 C          10.0471   43.2222   10.5987 C.ar    1  UNL1       -0.0025
      4 C           9.2574   42.1428   11.0078 C.ar    1  UNL1       -0.0130
      5 C           9.6125   40.8421   10.6364 C.ar    1  UNL1       -0.0025
      6 C          10.7490   40.6238    9.8527 C.ar    1  UNL1        0.0144
      7 C          13.2387   42.4292    7.6567 C.2     1  UNL1        0.2261
      8 O          12.6854   43.5395    7.4349 O.2     1  UNL1       -0.2748
      9 N          12.7157   41.5195    8.6329 N.am    1  UNL1       -0.2839
     10 H          13.2140   40.6810    8.7663 H       1  UNL1        0.1549
     11 C          14.4713   42.0554    6.9036 C.3     1  UNL1        0.0854
     12 C          15.6617   43.9428    5.7852 C.3     1  UNL1        0.0005
     13 C          15.5498   43.1171    7.0533 C.3     1  UNL1        0.0096
     14 C           8.0542   42.3727   11.8601 C.3     1  UNL1        0.1116
     15 C           6.8041   41.9504   11.1498 C.2     1  UNL1        0.2303
     16 O           6.0986   41.0340   11.6535 O.2     1  UNL1       -0.2745
     17 N           6.4140   42.5569    9.9039 N.am    1  UNL1       -0.2768
     18 C           5.2633   42.0095    9.1827 C.3     1  UNL1        0.0757
     19 C           4.0833   42.9690    9.2170 C.3     1  UNL1        0.0198
     20 C           2.9181   42.1996    9.8085 C.3     1  UNL1        0.0018
     21 C           3.2875   40.7366    9.7058 C.3     1  UNL1        0.0018
     22 C           4.7953   40.7000    9.7899 C.3     1  UNL1        0.0198
     23 C           7.2671   43.5560    9.2543 C.3     1  UNL1        0.1198
     24 C           7.5336   43.1968    7.8259 C.2     1  UNL1       -0.0047
     25 C           6.8797   43.7951    6.8340 C.2     1  UNL1       -0.0031
@<TRIPOS>BOND
     1    12    13    1
     2    13    11    1
     3    11     7    1
     4     7     9   am
     5     2     3   ar
     6     4     5   ar
     7    14     4    1
     8    14    15    1
     9    15    17   am
    10    23    17    1
    11    23    24    1
    12    18    17    1
    13    18    19    1
    14    19    20    1
    15    20    21    1
    16    21    22    1
    17    22    18    1
    18     6     1   ar
    19     9     1    1
    20     7     8    2
    21     1     2   ar
    22     3     4   ar
    23    15    16    2
    24    24    25    2
    25     5     6   ar
    26     9    10    1
@<TRIPOS>MOLECULE
MolPort-008-381-923 55412984 CSSS00159806312 MCULE-6001361176 PubChem-46999781 ZINC000055412984 ZINC55412984
 25 26 0 0 0
SMALL
GASTEIGER

@<TRIPOS>ATOM
      1 C          10.3611   40.7047    7.1538 C.ar    1  UNL1        0.0503
      2 C           9.4999   39.9833    7.9877 C.ar    1  UNL1        0.0144
      3 C           8.9966   40.5624    9.1561 C.ar    1  UNL1       -0.0025
      4 C           9.3537   41.8698    9.5011 C.ar    1  UNL1       -0.0130
      5 C          10.2100   42.5986    8.6696 C.ar    1  UNL1       -0.0025
      6 C          10.7126   42.0182    7.5017 C.ar    1  UNL1        0.0144
      7 C          10.1492   39.9078    4.7270 C.2     1  UNL1        0.2261
      8 O           8.9780   40.3486    4.5771 O.2     1  UNL1       -0.2748
      9 N          10.8548   40.0765    5.9629 N.am    1  UNL1       -0.2839
     10 H          11.7736   39.7246    5.9981 H       1  UNL1        0.1549
     11 C          10.8255   39.2102    3.5947 C.3     1  UNL1        0.0854
     12 C           9.9453   36.8825    3.4010 C.3     1  UNL1        0.0005
     13 C           9.8596   38.2963    2.8567 C.3     1  UNL1        0.0096
     14 C           8.8031   42.4973   10.7381 C.3     1  UNL1        0.1116
     15 C           7.4699   41.9106   11.0905 C.2     1  UNL1        0.2303
     16 O           7.3522   41.2761   12.1743 O.2     1  UNL1       -0.2745
     17 N           6.3406   42.0435   10.2077 N.am    1  UNL1       -0.2768
     18 C           5.1034   41.3313   10.5330 C.3     1  UNL1        0.0757
     19 C           4.3622   40.9094    9.2732 C.3     1  UNL1        0.0198
     20 C           2.9691   41.5003    9.3734 C.3     1  UNL1        0.0018
     21 C           2.7750   41.8699   10.8270 C.3     1  UNL1        0.0018
     22 C           4.1566   42.1980   11.3422 C.3     1  UNL1        0.0198
     23 C           6.4793   42.6945    8.9020 C.3     1  UNL1        0.1198
     24 C           5.9008   44.0749    8.9187 C.2     1  UNL1       -0.0047
     25 C           5.1313   44.5089    7.9243 C.2     1  UNL1       -0.0031
@<TRIPOS>BOND
     1    12    13    1
     2    13    11    1
     3    11     7    1
     4     7     9   am
     5     2     3   ar
     6     4     5   ar
     7    14     4    1
     8    14    15    1
     9    15    17   am
    10    23    17    1
    11    23    24    1
    12    18    17    1
    13    18    19    1
    14    19    20    1
    15    20    21    1
    16    21    22    1
    17    22    18    1
    18     6     1   ar
    19     9     1    1
    20     7     8    2
    21     1     2   ar
    22     3     4   ar
    23    15    16    2
    24    24    25    2
    25     5     6   ar
    26     9    10    1
@<TRIPOS>MOLECULE
MolPort-008-381-923 55412984 CSSS00159806312 MCULE-6001361176 PubChem-46999781 ZINC000055412984 ZINC55412984
 25 26 0 0 0
SMALL
GASTEIGER

@<TRIPOS>ATOM
      1 C          11.1316   41.8480    8.9225 C.ar    1  UNL1        0.0503
      2 C          10.9658   42.8716    9.8617 C.ar    1  UNL1        0.0144
      3 C           9.7965   43.6373    9.8749 C.ar    1  UNL1       -0.0025
      4 C           8.7827   43.3858    8.9449 C.ar    1  UNL1       -0.0130
      5 C           8.9395   42.3608    8.0065 C.ar    1  UNL1       -0.0025
      6 C          10.1093   41.5960    7.9945 C.ar    1  UNL1        0.0144
      7 C          12.5480   39.8146    9.5773 C.2     1  UNL1        0.2261
      8 O          11.6106   39.2281   10.1818 O.2     1  UNL1       -0.2748
      9 N          12.3446   41.0833    8.9425 N.am    1  UNL1       -0.2839
     10 H          13.1178   41.4700    8.4713 H       1  UNL1        0.1549
     11 C          13.8935   39.1739    9.5037 C.3     1  UNL1        0.0854
     12 C          14.5502   38.7753   11.8786 C.3     1  UNL1        0.0005
     13 C          14.0646   38.1285   10.5948 C.3     1  UNL1        0.0096
     14 C           7.5254   44.1892    8.9685 C.3     1  UNL1        0.1116
     15 C           6.3408   43.3242    9.2753 C.2     1  UNL1        0.2303
     16 O           5.2125   43.6538    8.8177 O.2     1  UNL1       -0.2745
     17 N           6.4699   42.1467   10.0931 N.am    1  UNL1       -0.2768
     18 C           5.2591   41.4190   10.4782 C.3     1  UNL1        0.0757
     19 C           4.5283   40.8792    9.2580 C.3     1  UNL1        0.0198
     20 C           3.1161   41.4280    9.3225 C.3     1  UNL1        0.0018
     21 C           2.9146   41.8983   10.7457 C.3     1  UNL1        0.0018
     22 C           4.2860   42.3109   11.2264 C.3     1  UNL1        0.0198
     23 C           7.7518   41.7977   10.7119 C.3     1  UNL1        0.1198
     24 C           7.5542   41.1854   12.0633 C.2     1  UNL1       -0.0047
     25 C           8.5053   41.2480   12.9912 C.2     1  UNL1       -0.0031
@<TRIPOS>BOND
     1    12    13    1
     2    13    11    1
     3    11     7    1
     4     7     9   am
     5     2     3   ar
     6     4     5   ar
     7    14     4    1
     8    14    15    1
     9    15    17   am
    10    23    17    1
    11    23    24    1
    12    18    17    1
    13    18    19    1
    14    19    20    1
    15    20    21    1
    16    21    22    1
    17    22    18    1
    18     6     1   ar
    19     9     1    1
    20     7     8    2
    21     1     2   ar
    22     3     4   ar
    23    15    16    2
    24    24    25    2
    25     5     6   ar
    26     9    10    1
@<TRIPOS>MOLECULE
MolPort-008-381-923 55412984 CSSS00159806312 MCULE-6001361176 PubChem-46999781 ZINC000055412984 ZINC55412984
 25 26 0 0 0
SMALL
GASTEIGER

@<TRIPOS>ATOM
      1 C           5.9003   41.4686   10.6067 C.ar    1  UNL1        0.0503
      2 C           7.0988   41.8496   11.2198 C.ar    1  UNL1        0.0144
      3 C           8.2325   42.1224   10.4489 C.ar    1  UNL1       -0.0025
      4 C           8.1763   42.0137    9.0557 C.ar    1  UNL1       -0.0130
      5 C           6.9802   41.6382    8.4358 C.ar    1  UNL1       -0.0025
      6 C           5.8475   41.3657    9.2080 C.ar    1  UNL1        0.0144
      7 C           3.4857   41.8550   11.3747 C.2     1  UNL1        0.2261
      8 O           3.2520   42.7565   10.5256 O.2     1  UNL1       -0.2748
      9 N           4.7588   41.1992   11.4317 N.am    1  UNL1       -0.2839
     10 H           4.8600   40.4903   12.1073 H       1  UNL1        0.1549
     11 C           2.4158   41.4468   12.3312 C.3     1  UNL1        0.0854
     12 C           0.5818   42.2556   13.8187 C.3     1  UNL1        0.0005
     13 C           1.5084   42.6183   12.6732 C.3     1  UNL1        0.0096
     14 C           9.3796   42.3224    8.2290 C.3     1  UNL1        0.1116
     15 C           9.1987   41.8484    6.8189 C.2     1  UNL1        0.2303
     16 O           8.2851   42.3623    6.1172 O.2     1  UNL1       -0.2745
     17 N          10.0320   40.8115    6.2687 N.am    1  UNL1       -0.2768
     18 C           9.7204   40.2883    4.9372 C.3     1  UNL1        0.0757
     19 C           8.8443   39.0476    5.0232 C.3     1  UNL1        0.0198
     20 C           9.5785   37.9480    4.2806 C.3     1  UNL1        0.0018
     21 C          10.6174   38.6409    3.4273 C.3     1  UNL1        0.0018
     22 C          10.9777   39.8989    4.1821 C.3     1  UNL1        0.0198
     23 C          11.0362   40.1359    7.0952 C.3     1  UNL1        0.1198
     24 C          12.3203   40.9042    7.1269 C.2     1  UNL1       -0.0047
     25 C          12.5078   41.9608    6.3408 C.2     1  UNL1       -0.0031
@<TRIPOS>BOND
     1    12    13    1
     2    13    11    1
     3    11     7    1
     4     7     9   am
     5     2     3   ar
     6     4     5   ar
     7    14     4    1
     8    14    15    1
     9    15    17   am
    10    23    17    1
    11    23    24    1
    12    18    17    1
    13    18    19    1
    14    19    20    1
    15    20    21    1
    16    21    22    1
    17    22    18    1
    18     6     1   ar
    19     9     1    1
    20     7     8    2
    21     1     2   ar
    22     3     4   ar
    23    15    16    2
    24    24    25    2
    25     5     6   ar
    26     9    10    1
@<TRIPOS>MOLECULE
MolPort-008-381-923 55412984 CSSS00159806312 MCULE-6001361176 PubChem-46999781 ZINC000055412984 ZINC55412984
 25 26 0 0 0
SMALL
GASTEIGER

@<TRIPOS>ATOM
      1 C          12.3394   40.6731    9.8556 C.ar    1  UNL1        0.0503
      2 C          12.1009   41.8841    9.1969 C.ar    1  UNL1        0.0144
      3 C          11.0092   42.6808    9.5538 C.ar    1  UNL1       -0.0025
      4 C          10.1444   42.2698   10.5732 C.ar    1  UNL1       -0.0130
      5 C          10.3796   41.0628   11.2393 C.ar    1  UNL1       -0.0025
      6 C          11.4716   40.2673   10.8813 C.ar    1  UNL1        0.0144
      7 C          14.4296   39.2676   10.3302 C.2     1  UNL1        0.2261
      8 O          14.3290   39.3559   11.5833 O.2     1  UNL1       -0.2748
      9 N          13.4710   39.8850    9.4619 N.am    1  UNL1       -0.2839
     10 H          13.6031   39.7546    8.4951 H       1  UNL1        0.1549
     11 C          15.5566   38.4935    9.7330 C.3     1  UNL1        0.0854
     12 C          14.0675   36.4910    9.7862 C.3     1  UNL1        0.0005
     13 C          15.0454   37.2946    8.9494 C.3     1  UNL1        0.0096
     14 C           8.9888   43.1270   10.9691 C.3     1  UNL1        0.1116
     15 C           7.7526   42.3037   11.1683 C.2     1  UNL1        0.2303
     16 O           7.6101   41.6730   12.2514 O.2     1  UNL1       -0.2745
     17 N           6.7471   42.2090   10.1425 N.am    1  UNL1       -0.2768
     18 C           5.6312   41.2803   10.3321 C.3     1  UNL1        0.0757
     19 C           4.8200   41.1246    9.0546 C.3     1  UNL1        0.0198
     20 C           3.3881   41.4791    9.4063 C.3     1  UNL1        0.0018
     21 C           3.2984   41.4104   10.9145 C.3     1  UNL1        0.0018
     22 C           4.6805   41.7629   11.4118 C.3     1  UNL1        0.0198
     23 C           6.9367   42.8570    8.8416 C.3     1  UNL1        0.1198
     24 C           7.7395   41.9959    7.9174 C.2     1  UNL1       -0.0047
     25 C           8.0367   40.7387    8.2350 C.2     1  UNL1       -0.0031
@<TRIPOS>BOND
     1    12    13    1
     2    13    11    1
     3    11     7    1
     4     7     9   am
     5     2     3   ar
     6     4     5   ar
     7    14     4    1
     8    14    15    1
     9    15    17   am
    10    23    17    1
    11    23    24    1
    12    18    17    1
    13    18    19    1
    14    19    20    1
    15    20    21    1
    16    21    22    1
    17    22    18    1
    18     6     1   ar
    19     9     1    1
    20     7     8    2
    21     1     2   ar
    22     3     4   ar
    23    15    16    2
    24    24    25    2
    25     5     6   ar
    26     9    10    1
@<TRIPOS>MOLECULE
MolPort-008-381-923 55412984 CSSS00159806312 MCULE-6001361176 PubChem-46999781 ZINC000055412984 ZINC55412984
 25 26 0 0 0
SMALL
GASTEIGER

@<TRIPOS>ATOM
      1 C           7.1061   41.6058    9.8477 C.ar    1  UNL1        0.0503
      2 C           7.8017   41.1481    8.7234 C.ar    1  UNL1        0.0144
      3 C           9.1851   40.9550    8.7773 C.ar    1  UNL1       -0.0025
      4 C           9.8851   41.2211    9.9584 C.ar    1  UNL1       -0.0130
      5 C           9.1955   41.6741   11.0877 C.ar    1  UNL1       -0.0025
      6 C           7.8123   41.8667   11.0323 C.ar    1  UNL1        0.0144
      7 C           4.9994   43.0046    9.4297 C.2     1  UNL1        0.2261
      8 O           5.6309   44.0621    9.1628 O.2     1  UNL1       -0.2748
      9 N           5.6871   41.7895    9.7533 N.am    1  UNL1       -0.2839
     10 H           5.1272   40.9990    9.9291 H       1  UNL1        0.1549
     11 C           3.5079   43.0068    9.3940 C.3     1  UNL1        0.0854
     12 C           2.7958   41.4957   11.2487 C.3     1  UNL1        0.0005
     13 C           2.9479   41.6373    9.7457 C.3     1  UNL1        0.0096
     14 C          11.3591   40.9981   10.0246 C.3     1  UNL1        0.1116
     15 C          12.0451   41.5819    8.8269 C.2     1  UNL1        0.2303
     16 O          11.4783   42.5162    8.1968 O.2     1  UNL1       -0.2745
     17 N          13.3187   41.0814    8.3801 N.am    1  UNL1       -0.2768
     18 C          13.8755   41.5897    7.1250 C.3     1  UNL1        0.0757
     19 C          15.1290   42.4155    7.3720 C.3     1  UNL1        0.0198
     20 C          14.8802   43.7753    6.7484 C.3     1  UNL1        0.0018
     21 C          13.7160   43.5939    5.8001 C.3     1  UNL1        0.0018
     22 C          12.8870   42.4806    6.3961 C.3     1  UNL1        0.0198
     23 C          13.9498   39.9352    9.0404 C.3     1  UNL1        0.1198
     24 C          13.6601   39.9266   10.5088 C.2     1  UNL1       -0.0047
     25 C          14.3023   39.1009   11.3306 C.2     1  UNL1       -0.0031
@<TRIPOS>BOND
     1    12    13    1
     2    13    11    1
     3    11     7    1
     4     7     9   am
     5     2     3   ar
     6     4     5   ar
     7    14     4    1
     8    14    15    1
     9    15    17   am
    10    23    17    1
    11    23    24    1
    12    18    17    1
    13    18    19    1
    14    19    20    1
    15    20    21    1
    16    21    22    1
    17    22    18    1
    18     6     1   ar
    19     9     1    1
    20     7     8    2
    21     1     2   ar
    22     3     4   ar
    23    15    16    2
    24    24    25    2
    25     5     6   ar
    26     9    10    1
