@<TRIPOS>MOLECULE
MolPort-003-077-886 4328235 CSSS03437148117 MCULE-2822599927 PubChem-7190982 ZINC000004328235 ZINC04328235
 30 32 0 0 0
SMALL
GASTEIGER

@<TRIPOS>ATOM
      1 C          10.3086   42.0204   10.7851 C.ar    1  UNL1        0.1888
      2 C           9.2034   44.0233   10.0757 C.ar    1  UNL1        0.1611
      3 N           9.0990   42.1926   11.3601 N.ar    1  UNL1       -0.1248
      4 N           8.4840   43.3056   10.9647 N.ar    1  UNL1       -0.1331
      5 S          10.6744   43.2851    9.7259 S.2     1  UNL1       -0.0241
      6 C          11.9960   40.2029   10.1490 C.2     1  UNL1        0.2509
      7 O          12.0823   40.5828    8.9498 O.2     1  UNL1       -0.2698
      8 N          11.1366   40.8872   11.0717 N.am    1  UNL1       -0.2592
      9 H          11.1135   40.5436   11.9940 H       1  UNL1        0.1571
     10 C          12.7445   35.2693   10.2992 C.3     1  UNL1        0.0310
     11 C          13.1541   36.6450   10.6834 C.ar    1  UNL1       -0.0217
     12 C          14.2866   36.8406   11.4784 C.ar    1  UNL1       -0.0043
     13 C          14.6714   38.1345   11.8395 C.ar    1  UNL1       -0.0002
     14 C          13.9236   39.2331   11.4055 C.ar    1  UNL1        0.0045
     15 C          12.7852   39.0458   10.6071 C.ar    1  UNL1        0.0534
     16 C          12.4062   37.7435   10.2494 C.ar    1  UNL1        0.0003
     17 S           8.6371   45.5608    9.3564 S.3     1  UNL1       -0.0768
     18 C           6.9565   44.9392    9.0113 C.3     1  UNL1        0.1488
     19 C           6.9936   43.7749    8.0807 C.2     1  UNL1        0.2339
     20 O           6.9611   43.9734    6.8371 O.2     1  UNL1       -0.2741
     21 N           7.0348   42.4477    8.6031 N.am    1  UNL1       -0.3033
     22 H           7.1073   42.3200    9.5766 H       1  UNL1        0.1495
     23 C           6.9729   41.2782    7.7413 C.3     1  UNL1        0.0941
     24 C           5.6127   40.6124    7.8791 C.3     1  UNL1        0.0476
     25 C           4.9214   41.0718    9.1212 C.ar    1  UNL1       -0.0205
     26 C           3.6032   41.5439    9.0688 C.ar    1  UNL1       -0.0042
     27 C           2.9688   41.9815   10.2354 C.ar    1  UNL1       -0.0003
     28 C           3.6495   41.9472   11.4561 C.ar    1  UNL1       -0.0000
     29 C           4.9637   41.4730   11.5111 C.ar    1  UNL1       -0.0003
     30 C           5.5984   41.0342   10.3450 C.ar    1  UNL1       -0.0042
@<TRIPOS>BOND
     1    10    11    1
     2    12    13   ar
     3    14    15   ar
     4    15     6    1
     5    16    11   ar
     6     6     8   am
     7     1     5   ar
     8     2    17    1
     9     2     5   ar
    10    18    17    1
    11    18    19    1
    12    19    21   am
    13    23    21    1
    14    23    24    1
    15    24    25    1
    16    26    27   ar
    17    28    29   ar
    18    30    25   ar
    19     8     1    1
    20     3     4   ar
    21    11    12   ar
    22    13    14   ar
    23    15    16   ar
    24     6     7    2
    25     1     3   ar
    26     2     4   ar
    27    19    20    2
    28    25    26   ar
    29    27    28   ar
    30    29    30   ar
    31     8     9    1
    32    21    22    1
@<TRIPOS>MOLECULE
MolPort-003-077-886 4328235 CSSS03437148117 MCULE-2822599927 PubChem-7190982 ZINC000004328235 ZINC04328235
 30 32 0 0 0
SMALL
GASTEIGER

@<TRIPOS>ATOM
      1 C          11.5936   40.8747    6.4885 C.ar    1  UNL1        0.1888
      2 C           9.3392   40.1490    6.1317 C.ar    1  UNL1        0.1611
      3 N          11.1268   41.1748    5.2574 N.ar    1  UNL1       -0.1248
      4 N           9.8729   40.7724    5.0595 N.ar    1  UNL1       -0.1331
      5 S          10.4282   40.0721    7.4121 S.2     1  UNL1       -0.0241
      6 C          13.5602   42.4931    6.7510 C.2     1  UNL1        0.2509
      7 O          12.9556   43.4520    6.1989 O.2     1  UNL1       -0.2698
      8 N          12.9192   41.2191    6.9079 N.am    1  UNL1       -0.2592
      9 H          13.4428   40.5109    7.3478 H       1  UNL1        0.1571
     10 C          17.4457   40.8979    9.4493 C.3     1  UNL1        0.0310
     11 C          16.8318   41.9105    8.5518 C.ar    1  UNL1       -0.0217
     12 C          17.5601   43.0410    8.1721 C.ar    1  UNL1       -0.0043
     13 C          16.9823   43.9931    7.3280 C.ar    1  UNL1       -0.0002
     14 C          15.6758   43.8146    6.8635 C.ar    1  UNL1        0.0045
     15 C          14.9373   42.6825    7.2398 C.ar    1  UNL1        0.0534
     16 C          15.5253   41.7319    8.0874 C.ar    1  UNL1        0.0003
     17 S           7.6701   39.5050    6.1720 S.3     1  UNL1       -0.0768
     18 C           6.8978   41.1419    6.4038 C.3     1  UNL1        0.1488
     19 C           7.3855   41.7957    7.6519 C.2     1  UNL1        0.2339
     20 O           7.9598   42.9147    7.5825 O.2     1  UNL1       -0.2741
     21 N           7.2263   41.1383    8.9083 N.am    1  UNL1       -0.3033
     22 H           6.7325   40.2872    8.9425 H       1  UNL1        0.1495
     23 C           7.7712   41.6871   10.1396 C.3     1  UNL1        0.0941
     24 C           6.7362   41.5824   11.2486 C.3     1  UNL1        0.0476
     25 C           5.3525   41.6028   10.6857 C.ar    1  UNL1       -0.0205
     26 C           4.5042   40.4987   10.8422 C.ar    1  UNL1       -0.0042
     27 C           3.2147   40.5237   10.3024 C.ar    1  UNL1       -0.0003
     28 C           2.7701   41.6519    9.6065 C.ar    1  UNL1       -0.0000
     29 C           3.6138   42.7562    9.4525 C.ar    1  UNL1       -0.0003
     30 C           4.9032   42.7322    9.9930 C.ar    1  UNL1       -0.0042
@<TRIPOS>BOND
     1    10    11    1
     2    12    13   ar
     3    14    15   ar
     4    15     6    1
     5    16    11   ar
     6     6     8   am
     7     1     5   ar
     8     2    17    1
     9     2     5   ar
    10    18    17    1
    11    18    19    1
    12    19    21   am
    13    23    21    1
    14    23    24    1
    15    24    25    1
    16    26    27   ar
    17    28    29   ar
    18    30    25   ar
    19     8     1    1
    20     3     4   ar
    21    11    12   ar
    22    13    14   ar
    23    15    16   ar
    24     6     7    2
    25     1     3   ar
    26     2     4   ar
    27    19    20    2
    28    25    26   ar
    29    27    28   ar
    30    29    30   ar
    31     8     9    1
    32    21    22    1
@<TRIPOS>MOLECULE
MolPort-003-077-886 4328235 CSSS03437148117 MCULE-2822599927 PubChem-7190982 ZINC000004328235 ZINC04328235
 30 32 0 0 0
SMALL
GASTEIGER

@<TRIPOS>ATOM
      1 C          10.9644   41.1900    5.8480 C.ar    1  UNL1        0.1888
      2 C           9.0832   39.7476    6.1890 C.ar    1  UNL1        0.1611
      3 N          10.3767   40.8011    4.6961 N.ar    1  UNL1       -0.1248
      4 N           9.3300   40.0002    4.8858 N.ar    1  UNL1       -0.1331
      5 S          10.1804   40.5339    7.1934 S.2     1  UNL1       -0.0241
      6 C          13.2722   41.9078    6.6933 C.2     1  UNL1        0.2509
      7 O          13.3697   40.9455    7.5021 O.2     1  UNL1       -0.2698
      8 N          12.1069   42.0539    5.8692 N.am    1  UNL1       -0.2592
      9 H          12.0908   42.8249    5.2573 H       1  UNL1        0.1571
     10 C          17.8189   43.4677    8.0411 C.3     1  UNL1        0.0310
     11 C          16.5779   43.6550    7.2457 C.ar    1  UNL1       -0.0217
     12 C          16.4479   44.7626    6.4038 C.ar    1  UNL1       -0.0043
     13 C          15.2805   44.9384    5.6560 C.ar    1  UNL1       -0.0002
     14 C          14.2430   44.0062    5.7502 C.ar    1  UNL1        0.0045
     15 C          14.3650   42.8912    6.5930 C.ar    1  UNL1        0.0534
     16 C          15.5404   42.7227    7.3399 C.ar    1  UNL1        0.0003
     17 S           7.7384   38.7135    6.7587 S.3     1  UNL1       -0.0768
     18 C           6.4412   39.7398    5.9884 C.3     1  UNL1        0.1488
     19 C           6.6213   41.1803    6.3286 C.2     1  UNL1        0.2339
     20 O           6.7844   42.0204    5.4042 O.2     1  UNL1       -0.2741
     21 N           6.6378   41.5918    7.6948 N.am    1  UNL1       -0.3033
     22 H           6.4609   40.9244    8.3965 H       1  UNL1        0.1495
     23 C           6.9079   42.9671    8.0819 C.3     1  UNL1        0.0941
     24 C           5.6466   43.5949    8.6540 C.3     1  UNL1        0.0476
     25 C           4.9510   42.6438    9.5722 C.ar    1  UNL1       -0.0205
     26 C           3.5613   42.4781    9.5056 C.ar    1  UNL1       -0.0042
     27 C           2.9186   41.5932   10.3767 C.ar    1  UNL1       -0.0003
     28 C           3.6630   40.8717   11.3148 C.ar    1  UNL1       -0.0000
     29 C           5.0503   41.0328   11.3804 C.ar    1  UNL1       -0.0003
     30 C           5.6938   41.9168   10.5088 C.ar    1  UNL1       -0.0042
@<TRIPOS>BOND
     1    10    11    1
     2    12    13   ar
     3    14    15   ar
     4    15     6    1
     5    16    11   ar
     6     6     8   am
     7     1     5   ar
     8     2    17    1
     9     2     5   ar
    10    18    17    1
    11    18    19    1
    12    19    21   am
    13    23    21    1
    14    23    24    1
    15    24    25    1
    16    26    27   ar
    17    28    29   ar
    18    30    25   ar
    19     8     1    1
    20     3     4   ar
    21    11    12   ar
    22    13    14   ar
    23    15    16   ar
    24     6     7    2
    25     1     3   ar
    26     2     4   ar
    27    19    20    2
    28    25    26   ar
    29    27    28   ar
    30    29    30   ar
    31     8     9    1
    32    21    22    1
@<TRIPOS>MOLECULE
MolPort-003-077-886 4328235 CSSS03437148117 MCULE-2822599927 PubChem-7190982 ZINC000004328235 ZINC04328235
 30 32 0 0 0
SMALL
GASTEIGER

@<TRIPOS>ATOM
      1 C          11.5225   41.4453    6.6021 C.ar    1  UNL1        0.1888
      2 C           9.1648   41.3293    6.1977 C.ar    1  UNL1        0.1611
      3 N          11.2138   40.8851    5.4128 N.ar    1  UNL1       -0.1248
      4 N           9.9030   40.8218    5.1874 N.ar    1  UNL1       -0.1331
      5 S          10.1333   41.9011    7.4491 S.2     1  UNL1       -0.0241
      6 C          13.7322   42.7283    6.7662 C.2     1  UNL1        0.2509
      7 O          13.3178   43.6999    6.0775 O.2     1  UNL1       -0.2698
      8 N          12.8762   41.6101    7.0407 N.am    1  UNL1       -0.2592
      9 H          13.2573   40.8836    7.5848 H       1  UNL1        0.1571
     10 C          17.2868   40.6874    9.6160 C.3     1  UNL1        0.0310
     11 C          16.8418   41.7521    8.6799 C.ar    1  UNL1       -0.0217
     12 C          17.7274   42.7645    8.3011 C.ar    1  UNL1       -0.0043
     13 C          17.3084   43.7656    7.4206 C.ar    1  UNL1       -0.0002
     14 C          16.0035   43.7542    6.9190 C.ar    1  UNL1        0.0045
     15 C          15.1078   42.7415    7.2941 C.ar    1  UNL1        0.0534
     16 C          15.5369   41.7407    8.1783 C.ar    1  UNL1        0.0003
     17 S           7.3765   41.3921    6.1814 S.3     1  UNL1       -0.0768
     18 C           7.1757   39.7757    7.0040 C.3     1  UNL1        0.1488
     19 C           8.4445   38.9933    6.9709 C.2     1  UNL1        0.2339
     20 O           8.7119   38.2873    5.9624 O.2     1  UNL1       -0.2741
     21 N           9.3294   39.0253    8.0898 N.am    1  UNL1       -0.3033
     22 H           9.1218   39.6210    8.8457 H       1  UNL1        0.1495
     23 C          10.5284   38.2048    8.1475 C.3     1  UNL1        0.0941
     24 C          10.6955   37.6406    9.5497 C.3     1  UNL1        0.0476
     25 C          11.9626   38.1311   10.1706 C.ar    1  UNL1       -0.0205
     26 C          12.2825   39.4950   10.1525 C.ar    1  UNL1       -0.0042
     27 C          13.4760   39.9425   10.7272 C.ar    1  UNL1       -0.0003
     28 C          14.3512   39.0285   11.3218 C.ar    1  UNL1       -0.0000
     29 C          14.0320   37.6674   11.3442 C.ar    1  UNL1       -0.0003
     30 C          12.8380   37.2194   10.7706 C.ar    1  UNL1       -0.0042
@<TRIPOS>BOND
     1    10    11    1
     2    12    13   ar
     3    14    15   ar
     4    15     6    1
     5    16    11   ar
     6     6     8   am
     7     1     5   ar
     8     2    17    1
     9     2     5   ar
    10    18    17    1
    11    18    19    1
    12    19    21   am
    13    23    21    1
    14    23    24    1
    15    24    25    1
    16    26    27   ar
    17    28    29   ar
    18    30    25   ar
    19     8     1    1
    20     3     4   ar
    21    11    12   ar
    22    13    14   ar
    23    15    16   ar
    24     6     7    2
    25     1     3   ar
    26     2     4   ar
    27    19    20    2
    28    25    26   ar
    29    27    28   ar
    30    29    30   ar
    31     8     9    1
    32    21    22    1
@<TRIPOS>MOLECULE
MolPort-003-077-886 4328235 CSSS03437148117 MCULE-2822599927 PubChem-7190982 ZINC000004328235 ZINC04328235
 30 32 0 0 0
SMALL
GASTEIGER

@<TRIPOS>ATOM
      1 C          11.8742   41.2176    6.2481 C.ar    1  UNL1        0.1888
      2 C           9.8462   40.3340    5.3303 C.ar    1  UNL1        0.1611
      3 N          10.9359   42.1625    6.0241 N.ar    1  UNL1       -0.1248
      4 N           9.8078   41.6710    5.5151 N.ar    1  UNL1       -0.1331
      5 S          11.3215   39.6822    5.8095 S.2     1  UNL1       -0.0241
      6 C          13.9485   42.6965    6.5045 C.2     1  UNL1        0.2509
      7 O          13.5283   43.5726    5.7010 O.2     1  UNL1       -0.2698
      8 N          13.1609   41.5326    6.7932 N.am    1  UNL1       -0.2592
      9 H          13.5429   40.8858    7.4296 H       1  UNL1        0.1571
     10 C          17.5255   40.9934    9.5422 C.3     1  UNL1        0.0310
     11 C          17.0045   42.0452    8.6310 C.ar    1  UNL1       -0.0217
     12 C          17.7582   43.1970    8.3899 C.ar    1  UNL1       -0.0043
     13 C          17.2678   44.1859    7.5329 C.ar    1  UNL1       -0.0002
     14 C          16.0236   44.0228    6.9168 C.ar    1  UNL1        0.0045
     15 C          15.2602   42.8696    7.1532 C.ar    1  UNL1        0.0534
     16 C          15.7603   41.8821    8.0149 C.ar    1  UNL1        0.0003
     17 S           8.4786   39.3871    4.6705 S.3     1  UNL1       -0.0768
     18 C           7.3576   39.7837    6.0546 C.3     1  UNL1        0.1488
     19 C           8.1238   40.1305    7.2858 C.2     1  UNL1        0.2339
     20 O           7.9716   41.2648    7.8123 O.2     1  UNL1       -0.2741
     21 N           9.0432   39.1905    7.8400 N.am    1  UNL1       -0.3033
     22 H           9.1094   38.2941    7.4385 H       1  UNL1        0.1495
     23 C           9.8852   39.5165    8.9796 C.3     1  UNL1        0.0941
     24 C           9.7428   40.9927    9.3155 C.3     1  UNL1        0.0476
     25 C           9.4769   41.1811   10.7734 C.ar    1  UNL1       -0.0205
     26 C          10.5004   40.9992   11.7128 C.ar    1  UNL1       -0.0042
     27 C          10.2385   41.1677   13.0759 C.ar    1  UNL1       -0.0003
     28 C           8.9544   41.5190   13.5026 C.ar    1  UNL1       -0.0000
     29 C           7.9325   41.7047   12.5665 C.ar    1  UNL1       -0.0003
     30 C           8.1940   41.5374   11.2031 C.ar    1  UNL1       -0.0042
@<TRIPOS>BOND
     1    10    11    1
     2    12    13   ar
     3    14    15   ar
     4    15     6    1
     5    16    11   ar
     6     6     8   am
     7     1     5   ar
     8     2    17    1
     9     2     5   ar
    10    18    17    1
    11    18    19    1
    12    19    21   am
    13    23    21    1
    14    23    24    1
    15    24    25    1
    16    26    27   ar
    17    28    29   ar
    18    30    25   ar
    19     8     1    1
    20     3     4   ar
    21    11    12   ar
    22    13    14   ar
    23    15    16   ar
    24     6     7    2
    25     1     3   ar
    26     2     4   ar
    27    19    20    2
    28    25    26   ar
    29    27    28   ar
    30    29    30   ar
    31     8     9    1
    32    21    22    1
@<TRIPOS>MOLECULE
MolPort-003-077-886 4328235 CSSS03437148117 MCULE-2822599927 PubChem-7190982 ZINC000004328235 ZINC04328235
 30 32 0 0 0
SMALL
GASTEIGER

@<TRIPOS>ATOM
      1 C          11.0904   41.1068    5.7838 C.ar    1  UNL1        0.1888
      2 C           8.9045   40.1403    5.9379 C.ar    1  UNL1        0.1611
      3 N          11.0825   39.7730    5.5726 N.ar    1  UNL1       -0.1248
      4 N           9.8670   39.2359    5.6570 N.ar    1  UNL1       -0.1331
      5 S           9.5357   41.6923    6.0926 S.2     1  UNL1       -0.0241
      6 C          13.0651   42.3284    6.8626 C.2     1  UNL1        0.2509
      7 O          12.7061   42.0487    8.0385 O.2     1  UNL1       -0.2698
      8 N          12.2950   41.8806    5.7380 N.am    1  UNL1       -0.2592
      9 H          12.6277   42.1300    4.8456 H       1  UNL1        0.1571
     10 C          17.9119   43.1366    7.7443 C.3     1  UNL1        0.0310
     11 C          16.6462   43.5198    7.0671 C.ar    1  UNL1       -0.0217
     12 C          16.6150   44.6318    6.2213 C.ar    1  UNL1       -0.0043
     13 C          15.4243   44.9919    5.5845 C.ar    1  UNL1       -0.0002
     14 C          14.2646   44.2398    5.7937 C.ar    1  UNL1        0.0045
     15 C          14.2868   43.1219    6.6413 C.ar    1  UNL1        0.0534
     16 C          15.4864   42.7678    7.2762 C.ar    1  UNL1        0.0003
     17 S           7.1726   39.7220    6.1047 S.3     1  UNL1       -0.0768
     18 C           6.8788   40.8984    7.4683 C.3     1  UNL1        0.1488
     19 C           7.9780   40.8423    8.4742 C.2     1  UNL1        0.2339
     20 O           8.1239   41.7933    9.2875 O.2     1  UNL1       -0.2741
     21 N           8.8725   39.7307    8.4893 N.am    1  UNL1       -0.3033
     22 H           8.7093   38.9784    7.8755 H       1  UNL1        0.1495
     23 C          10.0176   39.6752    9.3836 C.3     1  UNL1        0.0941
     24 C          10.8928   38.4857    9.0212 C.3     1  UNL1        0.0476
     25 C          12.0408   38.3643    9.9694 C.ar    1  UNL1       -0.0205
     26 C          12.5395   37.1043   10.3256 C.ar    1  UNL1       -0.0042
     27 C          13.6075   37.0012   11.2220 C.ar    1  UNL1       -0.0003
     28 C          14.1798   38.1564   11.7630 C.ar    1  UNL1       -0.0000
     29 C          13.6862   39.4149   11.4059 C.ar    1  UNL1       -0.0003
     30 C          12.6187   39.5187   10.5087 C.ar    1  UNL1       -0.0042
@<TRIPOS>BOND
     1    10    11    1
     2    12    13   ar
     3    14    15   ar
     4    15     6    1
     5    16    11   ar
     6     6     8   am
     7     1     5   ar
     8     2    17    1
     9     2     5   ar
    10    18    17    1
    11    18    19    1
    12    19    21   am
    13    23    21    1
    14    23    24    1
    15    24    25    1
    16    26    27   ar
    17    28    29   ar
    18    30    25   ar
    19     8     1    1
    20     3     4   ar
    21    11    12   ar
    22    13    14   ar
    23    15    16   ar
    24     6     7    2
    25     1     3   ar
    26     2     4   ar
    27    19    20    2
    28    25    26   ar
    29    27    28   ar
    30    29    30   ar
    31     8     9    1
    32    21    22    1
@<TRIPOS>MOLECULE
MolPort-003-077-886 4328235 CSSS03437148117 MCULE-2822599927 PubChem-7190982 ZINC000004328235 ZINC04328235
 30 32 0 0 0
SMALL
GASTEIGER

@<TRIPOS>ATOM
      1 C           9.6273   41.7236    9.9876 C.ar    1  UNL1        0.1888
      2 C          11.8819   40.9328   10.1532 C.ar    1  UNL1        0.1611
      3 N          10.5427   42.6463    9.6215 N.ar    1  UNL1       -0.1248
      4 N          11.7962   42.2062    9.7124 N.ar    1  UNL1       -0.1331
      5 S          10.3625   40.2751   10.4530 S.2     1  UNL1       -0.0241
      6 C           7.2637   41.4490    9.0422 C.2     1  UNL1        0.2509
      7 O           7.6263   40.6487    8.1378 O.2     1  UNL1       -0.2698
      8 N           8.2203   41.9916    9.9635 N.am    1  UNL1       -0.2592
      9 H           7.8753   42.6100   10.6475 H       1  UNL1        0.1571
     10 C           3.5913   44.7268    8.2100 C.3     1  UNL1        0.0310
     11 C           4.0534   43.4225    8.7514 C.ar    1  UNL1       -0.0217
     12 C           3.1428   42.5589    9.3660 C.ar    1  UNL1       -0.0043
     13 C           3.5778   41.3323    9.8751 C.ar    1  UNL1       -0.0002
     14 C           4.9237   40.9693    9.7695 C.ar    1  UNL1        0.0045
     15 C           5.8448   41.8304    9.1541 C.ar    1  UNL1        0.0534
     16 C           5.3993   43.0595    8.6459 C.ar    1  UNL1        0.0003
     17 S          13.4308   40.0632   10.3698 S.3     1  UNL1       -0.0768
     18 C          13.2643   39.1017    8.8279 C.3     1  UNL1        0.1488
     19 C          12.8851   39.9797    7.6840 C.2     1  UNL1        0.2339
     20 O          11.9637   39.6195    6.9042 O.2     1  UNL1       -0.2741
     21 N          13.5860   41.2029    7.4633 N.am    1  UNL1       -0.3033
     22 H          14.2695   41.4854    8.1132 H       1  UNL1        0.1495
     23 C          13.3214   42.0448    6.3077 C.3     1  UNL1        0.0941
     24 C          13.9506   43.4133    6.5167 C.3     1  UNL1        0.0476
     25 C          15.3195   43.2833    7.1007 C.ar    1  UNL1       -0.0205
     26 C          15.6536   42.1762    7.8917 C.ar    1  UNL1       -0.0042
     27 C          16.9343   42.0693    8.4423 C.ar    1  UNL1       -0.0003
     28 C          17.8836   43.0674    8.2028 C.ar    1  UNL1       -0.0000
     29 C          17.5534   44.1712    7.4105 C.ar    1  UNL1       -0.0003
     30 C          16.2731   44.2781    6.8587 C.ar    1  UNL1       -0.0042
@<TRIPOS>BOND
     1    10    11    1
     2    12    13   ar
     3    14    15   ar
     4    15     6    1
     5    16    11   ar
     6     6     8   am
     7     1     5   ar
     8     2    17    1
     9     2     5   ar
    10    18    17    1
    11    18    19    1
    12    19    21   am
    13    23    21    1
    14    23    24    1
    15    24    25    1
    16    26    27   ar
    17    28    29   ar
    18    30    25   ar
    19     8     1    1
    20     3     4   ar
    21    11    12   ar
    22    13    14   ar
    23    15    16   ar
    24     6     7    2
    25     1     3   ar
    26     2     4   ar
    27    19    20    2
    28    25    26   ar
    29    27    28   ar
    30    29    30   ar
    31     8     9    1
    32    21    22    1
@<TRIPOS>MOLECULE
MolPort-003-077-886 4328235 CSSS03437148117 MCULE-2822599927 PubChem-7190982 ZINC000004328235 ZINC04328235
 30 32 0 0 0
SMALL
GASTEIGER

@<TRIPOS>ATOM
      1 C          12.5184   40.0590    9.8078 C.ar    1  UNL1        0.1888
      2 C          10.6504   41.5577    9.8314 C.ar    1  UNL1        0.1611
      3 N          11.5057   39.6342   10.5935 N.ar    1  UNL1       -0.1248
      4 N          10.4665   40.4668   10.6057 N.ar    1  UNL1       -0.1331
      5 S          12.1510   41.5344    9.0707 S.2     1  UNL1       -0.0241
      6 C          14.5734   38.8241   10.7065 C.2     1  UNL1        0.2509
      7 O          14.2790   39.0365   11.9140 O.2     1  UNL1       -0.2698
      8 N          13.7305   39.3115    9.6528 N.am    1  UNL1       -0.2592
      9 H          14.0134   39.1124    8.7311 H       1  UNL1        0.1571
     10 C          16.8922   35.3397    7.9854 C.3     1  UNL1        0.0310
     11 C          16.9275   36.3730    9.0525 C.ar    1  UNL1       -0.0217
     12 C          18.1172   36.6272    9.7401 C.ar    1  UNL1       -0.0043
     13 C          18.1499   37.5991   10.7437 C.ar    1  UNL1       -0.0002
     14 C          16.9927   38.3169   11.0597 C.ar    1  UNL1        0.0045
     15 C          15.7939   38.0682   10.3744 C.ar    1  UNL1        0.0534
     16 C          15.7703   37.0909    9.3685 C.ar    1  UNL1        0.0003
     17 S           9.4286   42.8508    9.6382 S.3     1  UNL1       -0.0768
     18 C           8.0316   41.6918    9.4517 C.3     1  UNL1        0.1488
     19 C           6.9635   42.2706    8.5872 C.2     1  UNL1        0.2339
     20 O           6.7503   41.7751    7.4488 O.2     1  UNL1       -0.2741
     21 N           6.2134   43.3965    9.0408 N.am    1  UNL1       -0.3033
     22 H           6.3658   43.7357    9.9523 H       1  UNL1        0.1495
     23 C           5.2306   44.0578    8.1977 C.3     1  UNL1        0.0941
     24 C           3.8417   43.8723    8.7884 C.3     1  UNL1        0.0476
     25 C           3.7858   42.6422    9.6342 C.ar    1  UNL1       -0.0205
     26 C           4.2732   42.6589   10.9478 C.ar    1  UNL1       -0.0042
     27 C           4.2259   41.4993   11.7275 C.ar    1  UNL1       -0.0003
     28 C           3.6907   40.3217   11.1970 C.ar    1  UNL1       -0.0000
     29 C           3.2003   40.3039    9.8878 C.ar    1  UNL1       -0.0003
     30 C           3.2464   41.4635    9.1077 C.ar    1  UNL1       -0.0042
@<TRIPOS>BOND
     1    10    11    1
     2    12    13   ar
     3    14    15   ar
     4    15     6    1
     5    16    11   ar
     6     6     8   am
     7     1     5   ar
     8     2    17    1
     9     2     5   ar
    10    18    17    1
    11    18    19    1
    12    19    21   am
    13    23    21    1
    14    23    24    1
    15    24    25    1
    16    26    27   ar
    17    28    29   ar
    18    30    25   ar
    19     8     1    1
    20     3     4   ar
    21    11    12   ar
    22    13    14   ar
    23    15    16   ar
    24     6     7    2
    25     1     3   ar
    26     2     4   ar
    27    19    20    2
    28    25    26   ar
    29    27    28   ar
    30    29    30   ar
    31     8     9    1
    32    21    22    1
@<TRIPOS>MOLECULE
MolPort-003-077-886 4328235 CSSS03437148117 MCULE-2822599927 PubChem-7190982 ZINC000004328235 ZINC04328235
 30 32 0 0 0
SMALL
GASTEIGER

@<TRIPOS>ATOM
      1 C          11.4397   42.0841    7.3838 C.ar    1  UNL1        0.1888
      2 C           9.1334   41.8245    6.7924 C.ar    1  UNL1        0.1611
      3 N          10.6047   42.7896    8.1766 N.ar    1  UNL1       -0.1248
      4 N           9.3223   42.6443    7.8486 N.ar    1  UNL1       -0.1331
      5 S          10.5903   41.2214    6.2051 S.2     1  UNL1       -0.0241
      6 C          13.7919   42.9898    6.9340 C.2     1  UNL1        0.2509
      7 O          13.3905   43.8730    6.1285 O.2     1  UNL1       -0.2698
      8 N          12.8606   42.0995    7.5651 N.am    1  UNL1       -0.2592
      9 H          13.2354   41.4326    8.1847 H       1  UNL1        0.1571
     10 C          17.5219   40.8262    9.4495 C.3     1  UNL1        0.0310
     11 C          17.0500   41.8212    8.4520 C.ar    1  UNL1       -0.0217
     12 C          17.9700   42.6432    7.7957 C.ar    1  UNL1       -0.0043
     13 C          17.5257   43.5788    6.8576 C.ar    1  UNL1       -0.0002
     14 C          16.1611   43.6924    6.5757 C.ar    1  UNL1        0.0045
     15 C          15.2305   42.8712    7.2300 C.ar    1  UNL1        0.0534
     16 C          15.6854   41.9347    8.1702 C.ar    1  UNL1        0.0003
     17 S           7.5215   41.4276    6.1243 S.3     1  UNL1       -0.0768
     18 C           7.0138   40.4384    7.5711 C.3     1  UNL1        0.1488
     19 C           7.1703   41.2135    8.8352 C.2     1  UNL1        0.2339
     20 O           6.3638   42.1457    9.0952 O.2     1  UNL1       -0.2741
     21 N           8.2462   40.9155    9.7238 N.am    1  UNL1       -0.3033
     22 H           8.8344   40.1523    9.5221 H       1  UNL1        0.1495
     23 C           8.5002   41.7049   10.9182 C.3     1  UNL1        0.0941
     24 C           9.5130   40.9897   11.7985 C.3     1  UNL1        0.0476
     25 C          10.5914   40.3711   10.9703 C.ar    1  UNL1       -0.0205
     26 C          11.9323   40.7267   11.1670 C.ar    1  UNL1       -0.0042
     27 C          12.9331   40.1497   10.3793 C.ar    1  UNL1       -0.0003
     28 C          12.5963   39.2158    9.3949 C.ar    1  UNL1       -0.0000
     29 C          11.2591   38.8567    9.1995 C.ar    1  UNL1       -0.0003
     30 C          10.2579   39.4326    9.9876 C.ar    1  UNL1       -0.0042
@<TRIPOS>BOND
     1    10    11    1
     2    12    13   ar
     3    14    15   ar
     4    15     6    1
     5    16    11   ar
     6     6     8   am
     7     1     5   ar
     8     2    17    1
     9     2     5   ar
    10    18    17    1
    11    18    19    1
    12    19    21   am
    13    23    21    1
    14    23    24    1
    15    24    25    1
    16    26    27   ar
    17    28    29   ar
    18    30    25   ar
    19     8     1    1
    20     3     4   ar
    21    11    12   ar
    22    13    14   ar
    23    15    16   ar
    24     6     7    2
    25     1     3   ar
    26     2     4   ar
    27    19    20    2
    28    25    26   ar
    29    27    28   ar
    30    29    30   ar
    31     8     9    1
    32    21    22    1
@<TRIPOS>MOLECULE
MolPort-003-077-886 4328235 CSSS03437148117 MCULE-2822599927 PubChem-7190982 ZINC000004328235 ZINC04328235
 30 32 0 0 0
SMALL
GASTEIGER

@<TRIPOS>ATOM
      1 C          10.3588   41.6084    5.8447 C.ar    1  UNL1        0.1888
      2 C           8.2013   40.6043    6.1151 C.ar    1  UNL1        0.1611
      3 N          10.0009   40.8280    4.8024 N.ar    1  UNL1       -0.1248
      4 N           8.8008   40.2708    4.9521 N.ar    1  UNL1       -0.1331
      5 S           9.1582   41.6399    7.0333 S.2     1  UNL1       -0.0241
      6 C          12.7886   41.8972    6.5984 C.2     1  UNL1        0.2509
      7 O          12.7939   40.8348    7.2774 O.2     1  UNL1       -0.2698
      8 N          11.6114   42.3021    5.8852 N.am    1  UNL1       -0.2592
      9 H          11.6704   43.1404    5.3724 H       1  UNL1        0.1571
     10 C          17.4612   42.8428    8.0798 C.3     1  UNL1        0.0310
     11 C          16.2771   43.1953    7.2543 C.ar    1  UNL1       -0.0217
     12 C          16.3152   44.3160    6.4204 C.ar    1  UNL1       -0.0043
     13 C          15.2013   44.6472    5.6442 C.ar    1  UNL1       -0.0002
     14 C          14.0492   43.8574    5.7020 C.ar    1  UNL1        0.0045
     15 C          14.0023   42.7305    6.5366 C.ar    1  UNL1        0.0534
     16 C          15.1250   42.4056    7.3121 C.ar    1  UNL1        0.0003
     17 S           6.5799   40.0191    6.5954 S.3     1  UNL1       -0.0768
     18 C           6.1357   41.5546    7.4755 C.3     1  UNL1        0.1488
     19 C           5.8284   41.2840    8.9092 C.2     1  UNL1        0.2339
     20 O           4.6702   40.9115    9.2358 O.2     1  UNL1       -0.2741
     21 N           6.8356   41.4770    9.9013 N.am    1  UNL1       -0.3033
     22 H           7.7454   41.7225    9.6164 H       1  UNL1        0.1495
     23 C           6.5589   41.3221   11.3203 C.3     1  UNL1        0.0941
     24 C           7.8673   41.2436   12.0912 C.3     1  UNL1        0.0476
     25 C           8.9820   41.8549   11.3067 C.ar    1  UNL1       -0.0205
     26 C           8.9449   43.2108   10.9553 C.ar    1  UNL1       -0.0042
     27 C           9.9882   43.7707   10.2117 C.ar    1  UNL1       -0.0003
     28 C          11.0705   42.9777    9.8190 C.ar    1  UNL1       -0.0000
     29 C          11.1113   41.6253   10.1718 C.ar    1  UNL1       -0.0003
     30 C          10.0688   41.0650   10.9163 C.ar    1  UNL1       -0.0042
@<TRIPOS>BOND
     1    10    11    1
     2    12    13   ar
     3    14    15   ar
     4    15     6    1
     5    16    11   ar
     6     6     8   am
     7     1     5   ar
     8     2    17    1
     9     2     5   ar
    10    18    17    1
    11    18    19    1
    12    19    21   am
    13    23    21    1
    14    23    24    1
    15    24    25    1
    16    26    27   ar
    17    28    29   ar
    18    30    25   ar
    19     8     1    1
    20     3     4   ar
    21    11    12   ar
    22    13    14   ar
    23    15    16   ar
    24     6     7    2
    25     1     3   ar
    26     2     4   ar
    27    19    20    2
    28    25    26   ar
    29    27    28   ar
    30    29    30   ar
    31     8     9    1
    32    21    22    1
