@<TRIPOS>MOLECULE
MolPort-002-865-769 5540781 CHEMBL1423125 CSSS00138423848 MCULE-4762641888 PubChem-4269270 ZINC000005540781 ZINC05540781
 26 28 0 0 0
SMALL
GASTEIGER

@<TRIPOS>ATOM
      1 C           9.3112   41.6259    8.7018 C.ar    1  UNL1        0.1866
      2 C           7.9572   43.3074    8.0902 C.ar    1  UNL1        0.3638
      3 C           5.7814   43.1449    9.3398 C.2     1  UNL1        0.2736
      4 O           7.6443   44.3508    7.4572 O.2     1  UNL1       -0.2434
      5 O           5.4358   44.3334    9.0980 O.2     1  UNL1       -0.2660
      6 N           9.1859   42.7280    7.9283 N.ar    1  UNL1       -0.1687
      7 N           7.0969   42.6994    8.9591 N.ar    1  UNL1       -0.1919
      8 S           7.9145   41.3851    9.5719 S.2     1  UNL1        0.0367
      9 C           4.8157   42.2302    9.9955 C.ar    1  UNL1        0.0532
     10 C           4.3725   41.0338    9.3824 C.ar    1  UNL1       -0.0172
     11 C           4.7884   40.6451    8.0034 C.3     1  UNL1        0.0312
     12 C           3.4845   40.1910   10.0593 C.ar    1  UNL1       -0.0041
     13 C           3.0366   40.5162   11.3408 C.ar    1  UNL1       -0.0003
     14 C           3.4735   41.6904   11.9541 C.ar    1  UNL1        0.0001
     15 C           4.3585   42.5388   11.2858 C.ar    1  UNL1        0.0044
     16 C          11.2298   40.5386    9.9597 C.2     1  UNL1        0.2509
     17 O          10.8873   41.0586   11.0568 O.2     1  UNL1       -0.2698
     18 N          10.4742   40.7961    8.7690 N.am    1  UNL1       -0.2594
     19 H          10.7785   40.3700    7.9353 H       1  UNL1        0.1571
     20 C          15.8610   37.1115    9.7331 C.3     1  UNL1        0.0310
     21 C          14.6673   37.9944    9.7913 C.ar    1  UNL1       -0.0218
     22 C          14.7758   39.2820   10.3236 C.ar    1  UNL1       -0.0041
     23 C          13.6527   40.1127   10.3785 C.ar    1  UNL1        0.0042
     24 C          12.4130   39.6622    9.9015 C.ar    1  UNL1        0.0537
     25 C          12.3130   38.3681    9.3686 C.ar    1  UNL1        0.0042
     26 C          13.4361   37.5374    9.3137 C.ar    1  UNL1       -0.0041
@<TRIPOS>BOND
     1    20    21    1
     2    22    23   ar
     3    24    25   ar
     4    24    16    1
     5    26    21   ar
     6    16    18   am
     7     1     8   ar
     8     2     6   ar
     9     2     7   ar
    10     3     9    1
    11    10    12   ar
    12    11    10    1
    13    13    14   ar
    14    15     9   ar
    15    18     1    1
    16     7     8   ar
    17     7     3   am
    18    21    22   ar
    19    23    24   ar
    20    25    26   ar
    21    16    17    2
    22     1     6   ar
    23     2     4    2
    24     3     5    2
    25     9    10   ar
    26    12    13   ar
    27    14    15   ar
    28    18    19    1
@<TRIPOS>MOLECULE
MolPort-002-865-769 5540781 CHEMBL1423125 CSSS00138423848 MCULE-4762641888 PubChem-4269270 ZINC000005540781 ZINC05540781
 26 28 0 0 0
SMALL
GASTEIGER

@<TRIPOS>ATOM
      1 C          13.8825   37.4820    3.8943 C.ar    1  UNL1        0.1866
      2 C          15.6259   36.7090    2.7121 C.ar    1  UNL1        0.3638
      3 C          16.2687   34.4235    3.5401 C.2     1  UNL1        0.2736
      4 O          16.5097   36.7551    1.8154 O.2     1  UNL1       -0.2434
      5 O          16.9436   34.1300    2.5160 O.2     1  UNL1       -0.2660
      6 N          14.7431   37.7399    2.8836 N.ar    1  UNL1       -0.1687
      7 N          15.5034   35.6433    3.5572 N.ar    1  UNL1       -0.1919
      8 S          14.2183   35.9935    4.5557 S.2     1  UNL1        0.0367
      9 C          16.2949   33.5115    4.7092 C.ar    1  UNL1        0.0532
     10 C          17.0944   33.7669    5.8490 C.ar    1  UNL1       -0.0172
     11 C          18.0225   34.9324    5.9247 C.3     1  UNL1        0.0312
     12 C          17.0570   32.8893    6.9377 C.ar    1  UNL1       -0.0041
     13 C          16.2300   31.7651    6.9134 C.ar    1  UNL1       -0.0003
     14 C          15.4346   31.5096    5.7963 C.ar    1  UNL1        0.0001
     15 C          15.4662   32.3789    4.7041 C.ar    1  UNL1        0.0044
     16 C          11.4479   38.1947    3.9960 C.2     1  UNL1        0.2509
     17 O          11.0707   37.2302    3.2757 O.2     1  UNL1       -0.2698
     18 N          12.8341   38.3544    4.3247 N.am    1  UNL1       -0.2594
     19 H          13.0830   39.1220    4.8887 H       1  UNL1        0.1571
     20 C           7.5748   41.9798    5.9752 C.3     1  UNL1        0.0310
     21 C           8.5733   41.0046    5.4652 C.ar    1  UNL1       -0.0218
     22 C           8.1523   39.7662    4.9733 C.ar    1  UNL1       -0.0041
     23 C           9.0916   38.8486    4.4936 C.ar    1  UNL1        0.0042
     24 C          10.4586   39.1625    4.5020 C.ar    1  UNL1        0.0537
     25 C          10.8726   40.4082    4.9976 C.ar    1  UNL1        0.0042
     26 C           9.9333   41.3258    5.4774 C.ar    1  UNL1       -0.0041
@<TRIPOS>BOND
     1    20    21    1
     2    22    23   ar
     3    24    25   ar
     4    24    16    1
     5    26    21   ar
     6    16    18   am
     7     1     8   ar
     8     2     6   ar
     9     2     7   ar
    10     3     9    1
    11    10    12   ar
    12    11    10    1
    13    13    14   ar
    14    15     9   ar
    15    18     1    1
    16     7     8   ar
    17     7     3   am
    18    21    22   ar
    19    23    24   ar
    20    25    26   ar
    21    16    17    2
    22     1     6   ar
    23     2     4    2
    24     3     5    2
    25     9    10   ar
    26    12    13   ar
    27    14    15   ar
    28    18    19    1
@<TRIPOS>MOLECULE
MolPort-002-865-769 5540781 CHEMBL1423125 CSSS00138423848 MCULE-4762641888 PubChem-4269270 ZINC000005540781 ZINC05540781
 26 28 0 0 0
SMALL
GASTEIGER

@<TRIPOS>ATOM
      1 C           8.4958   41.7450    7.7586 C.ar    1  UNL1        0.1866
      2 C           7.8831   43.5930    8.8740 C.ar    1  UNL1        0.3638
      3 C           8.6784   43.4523   11.2551 C.2     1  UNL1        0.2736
      4 O           7.3526   44.7287    9.0008 O.2     1  UNL1       -0.2434
      5 O           8.5428   44.6856   11.4811 O.2     1  UNL1       -0.2660
      6 N           7.8711   42.9411    7.6713 N.ar    1  UNL1       -0.1687
      7 N           8.4878   42.9531    9.9178 N.ar    1  UNL1       -0.1919
      8 S           9.0539   41.5113    9.3077 S.2     1  UNL1        0.0367
      9 C           9.0143   42.5440   12.3782 C.ar    1  UNL1        0.0532
     10 C          10.1716   41.7291   12.3706 C.ar    1  UNL1       -0.0172
     11 C          11.0963   41.6713   11.2013 C.3     1  UNL1        0.0312
     12 C          10.4574   40.9136   13.4708 C.ar    1  UNL1       -0.0041
     13 C           9.6134   40.9025   14.5826 C.ar    1  UNL1       -0.0003
     14 C           8.4741   41.7072   14.6002 C.ar    1  UNL1        0.0001
     15 C           8.1797   42.5232   13.5062 C.ar    1  UNL1        0.0044
     16 C           9.9224   40.4134    6.1346 C.2     1  UNL1        0.2509
     17 O          10.9985   40.8721    6.6068 O.2     1  UNL1       -0.2698
     18 N           8.6606   40.8224    6.6782 N.am    1  UNL1       -0.2594
     19 H           7.8466   40.4395    6.2781 H       1  UNL1        0.1571
     20 C          10.0781   36.6518    1.7675 C.3     1  UNL1        0.0310
     21 C          10.0382   37.6216    2.8928 C.ar    1  UNL1       -0.0218
     22 C           9.6107   37.2075    4.1571 C.ar    1  UNL1       -0.0041
     23 C           9.5730   38.1198    5.2158 C.ar    1  UNL1        0.0042
     24 C           9.9624   39.4526    5.0181 C.ar    1  UNL1        0.0537
     25 C          10.3903   39.8599    3.7453 C.ar    1  UNL1        0.0042
     26 C          10.4281   38.9476    2.6867 C.ar    1  UNL1       -0.0041
@<TRIPOS>BOND
     1    20    21    1
     2    22    23   ar
     3    24    25   ar
     4    24    16    1
     5    26    21   ar
     6    16    18   am
     7     1     8   ar
     8     2     6   ar
     9     2     7   ar
    10     3     9    1
    11    10    12   ar
    12    11    10    1
    13    13    14   ar
    14    15     9   ar
    15    18     1    1
    16     7     8   ar
    17     7     3   am
    18    21    22   ar
    19    23    24   ar
    20    25    26   ar
    21    16    17    2
    22     1     6   ar
    23     2     4    2
    24     3     5    2
    25     9    10   ar
    26    12    13   ar
    27    14    15   ar
    28    18    19    1
@<TRIPOS>MOLECULE
MolPort-002-865-769 5540781 CHEMBL1423125 CSSS00138423848 MCULE-4762641888 PubChem-4269270 ZINC000005540781 ZINC05540781
 26 28 0 0 0
SMALL
GASTEIGER

@<TRIPOS>ATOM
      1 C          13.3736   41.7706    7.7129 C.ar    1  UNL1        0.1866
      2 C          15.3795   42.7733    7.7877 C.ar    1  UNL1        0.3638
      3 C          17.0837   41.1954    8.7511 C.2     1  UNL1        0.2736
      4 O          16.1932   43.7175    7.6044 O.2     1  UNL1       -0.2434
      5 O          18.0770   41.8472    8.3280 O.2     1  UNL1       -0.2660
      6 N          14.0644   42.8988    7.4323 N.ar    1  UNL1       -0.1687
      7 N          15.7574   41.5875    8.3498 N.ar    1  UNL1       -0.1919
      8 S          14.3892   40.6399    8.3880 S.2     1  UNL1        0.0367
      9 C          17.3070   40.0504    9.6667 C.ar    1  UNL1        0.0532
     10 C          16.2807   39.5319   10.4923 C.ar    1  UNL1       -0.0172
     11 C          14.9227   40.1465   10.5540 C.3     1  UNL1        0.0312
     12 C          16.5373   38.4297   11.3145 C.ar    1  UNL1       -0.0041
     13 C          17.7977   37.8297   11.3221 C.ar    1  UNL1       -0.0003
     14 C          18.8126   38.3310   10.5070 C.ar    1  UNL1        0.0001
     15 C          18.5665   39.4319    9.6841 C.ar    1  UNL1        0.0044
     16 C          11.3850   40.3322    7.0631 C.2     1  UNL1        0.2509
     17 O          12.0993   39.3033    6.9125 O.2     1  UNL1       -0.2698
     18 N          11.9798   41.5751    7.4588 N.am    1  UNL1       -0.2594
     19 H          11.3843   42.3521    7.5634 H       1  UNL1        0.1571
     20 C           5.6990   40.0380    6.1539 C.3     1  UNL1        0.0310
     21 C           7.1644   40.1134    6.3883 C.ar    1  UNL1       -0.0218
     22 C           7.7956   41.3574    6.4710 C.ar    1  UNL1       -0.0041
     23 C           9.1743   41.4284    6.6914 C.ar    1  UNL1        0.0042
     24 C           9.9319   40.2563    6.8307 C.ar    1  UNL1        0.0537
     25 C           9.2900   39.0114    6.7464 C.ar    1  UNL1        0.0042
     26 C           7.9113   38.9404    6.5260 C.ar    1  UNL1       -0.0041
@<TRIPOS>BOND
     1    20    21    1
     2    22    23   ar
     3    24    25   ar
     4    24    16    1
     5    26    21   ar
     6    16    18   am
     7     1     8   ar
     8     2     6   ar
     9     2     7   ar
    10     3     9    1
    11    10    12   ar
    12    11    10    1
    13    13    14   ar
    14    15     9   ar
    15    18     1    1
    16     7     8   ar
    17     7     3   am
    18    21    22   ar
    19    23    24   ar
    20    25    26   ar
    21    16    17    2
    22     1     6   ar
    23     2     4    2
    24     3     5    2
    25     9    10   ar
    26    12    13   ar
    27    14    15   ar
    28    18    19    1
@<TRIPOS>MOLECULE
MolPort-002-865-769 5540781 CHEMBL1423125 CSSS00138423848 MCULE-4762641888 PubChem-4269270 ZINC000005540781 ZINC05540781
 26 28 0 0 0
SMALL
GASTEIGER

@<TRIPOS>ATOM
      1 C          10.8484   41.4607    8.3014 C.ar    1  UNL1        0.1866
      2 C          13.0762   41.2991    8.5144 C.ar    1  UNL1        0.3638
      3 C          13.7261   38.8937    8.8520 C.2     1  UNL1        0.2736
      4 O          14.2560   41.7394    8.5521 O.2     1  UNL1       -0.2434
      5 O          14.9403   39.0745    8.5631 O.2     1  UNL1       -0.2660
      6 N          12.0173   42.1405    8.3085 N.ar    1  UNL1       -0.1687
      7 N          12.7897   39.9742    8.6803 N.ar    1  UNL1       -0.1919
      8 S          11.1359   39.8407    8.5440 S.2     1  UNL1        0.0367
      9 C          13.2966   37.5756    9.3786 C.ar    1  UNL1        0.0532
     10 C          13.9572   36.3723    9.0332 C.ar    1  UNL1       -0.0172
     11 C          15.0856   36.3359    8.0579 C.3     1  UNL1        0.0312
     12 C          13.5299   35.1595    9.5840 C.ar    1  UNL1       -0.0041
     13 C          12.4601   35.1261   10.4800 C.ar    1  UNL1       -0.0003
     14 C          11.8077   36.3083   10.8301 C.ar    1  UNL1        0.0001
     15 C          12.2259   37.5236   10.2843 C.ar    1  UNL1        0.0044
     16 C           8.6558   42.4126    9.1571 C.2     1  UNL1        0.2509
     17 O           8.9740   42.2263   10.3636 O.2     1  UNL1       -0.2698
     18 N           9.5580   42.0456    8.1053 N.am    1  UNL1       -0.2594
     19 H           9.2677   42.2083    7.1787 H       1  UNL1        0.1571
     20 C           3.5471   44.7523    7.8643 C.3     1  UNL1        0.0310
     21 C           4.8635   44.1490    8.1978 C.ar    1  UNL1       -0.0218
     22 C           6.0204   44.5968    7.5542 C.ar    1  UNL1       -0.0041
     23 C           7.2589   44.0293    7.8679 C.ar    1  UNL1        0.0042
     24 C           7.3499   43.0101    8.8272 C.ar    1  UNL1        0.0537
     25 C           6.1833   42.5666    9.4685 C.ar    1  UNL1        0.0042
     26 C           4.9448   43.1341    9.1549 C.ar    1  UNL1       -0.0041
@<TRIPOS>BOND
     1    20    21    1
     2    22    23   ar
     3    24    25   ar
     4    24    16    1
     5    26    21   ar
     6    16    18   am
     7     1     8   ar
     8     2     6   ar
     9     2     7   ar
    10     3     9    1
    11    10    12   ar
    12    11    10    1
    13    13    14   ar
    14    15     9   ar
    15    18     1    1
    16     7     8   ar
    17     7     3   am
    18    21    22   ar
    19    23    24   ar
    20    25    26   ar
    21    16    17    2
    22     1     6   ar
    23     2     4    2
    24     3     5    2
    25     9    10   ar
    26    12    13   ar
    27    14    15   ar
    28    18    19    1
@<TRIPOS>MOLECULE
MolPort-002-865-769 5540781 CHEMBL1423125 CSSS00138423848 MCULE-4762641888 PubChem-4269270 ZINC000005540781 ZINC05540781
 26 28 0 0 0
SMALL
GASTEIGER

@<TRIPOS>ATOM
      1 C           9.6074   41.6072    9.8140 C.ar    1  UNL1        0.1866
      2 C          11.5090   42.0369    8.7031 C.ar    1  UNL1        0.3638
      3 C          13.1804   40.2099    9.1396 C.2     1  UNL1        0.2736
      4 O          12.2606   42.6940    7.9347 O.2     1  UNL1       -0.2434
      5 O          13.9149   40.5069    8.1584 O.2     1  UNL1       -0.2660
      6 N          10.2360   42.4591    8.9728 N.ar    1  UNL1       -0.1687
      7 N          11.9185   40.8830    9.3079 N.ar    1  UNL1       -0.1919
      8 S          10.6233   40.3509   10.2083 S.2     1  UNL1        0.0367
      9 C          13.6444   39.1853   10.1062 C.ar    1  UNL1        0.0532
     10 C          13.1602   37.8554   10.0881 C.ar    1  UNL1       -0.0172
     11 C          12.0954   37.4092    9.1432 C.3     1  UNL1        0.0312
     12 C          13.6556   36.9205   11.0033 C.ar    1  UNL1       -0.0041
     13 C          14.6319   37.2864   11.9315 C.ar    1  UNL1       -0.0003
     14 C          15.1185   38.5936   11.9518 C.ar    1  UNL1        0.0001
     15 C          14.6290   39.5342   11.0434 C.ar    1  UNL1        0.0044
     16 C           7.0891   41.4813    9.5173 C.2     1  UNL1        0.2509
     17 O           7.1872   41.0720    8.3281 O.2     1  UNL1       -0.2698
     18 N           8.2662   41.7585   10.2872 N.am    1  UNL1       -0.2594
     19 H           8.1421   42.0767   11.2105 H       1  UNL1        0.1571
     20 C           1.8805   42.2408   11.8706 C.3     1  UNL1        0.0310
     21 C           3.2228   42.0453   11.2638 C.ar    1  UNL1       -0.0218
     22 C           4.0994   41.0969   11.7976 C.ar    1  UNL1       -0.0041
     23 C           5.3623   40.9131   11.2268 C.ar    1  UNL1        0.0042
     24 C           5.7578   41.6759   10.1182 C.ar    1  UNL1        0.0537
     25 C           4.8713   42.6259    9.5887 C.ar    1  UNL1        0.0042
     26 C           3.6085   42.8098   10.1594 C.ar    1  UNL1       -0.0041
@<TRIPOS>BOND
     1    20    21    1
     2    22    23   ar
     3    24    25   ar
     4    24    16    1
     5    26    21   ar
     6    16    18   am
     7     1     8   ar
     8     2     6   ar
     9     2     7   ar
    10     3     9    1
    11    10    12   ar
    12    11    10    1
    13    13    14   ar
    14    15     9   ar
    15    18     1    1
    16     7     8   ar
    17     7     3   am
    18    21    22   ar
    19    23    24   ar
    20    25    26   ar
    21    16    17    2
    22     1     6   ar
    23     2     4    2
    24     3     5    2
    25     9    10   ar
    26    12    13   ar
    27    14    15   ar
    28    18    19    1
@<TRIPOS>MOLECULE
MolPort-002-865-769 5540781 CHEMBL1423125 CSSS00138423848 MCULE-4762641888 PubChem-4269270 ZINC000005540781 ZINC05540781
 26 28 0 0 0
SMALL
GASTEIGER

@<TRIPOS>ATOM
      1 C          14.5707   36.3159    4.3286 C.ar    1  UNL1        0.1866
      2 C          16.3245   35.7317    3.0568 C.ar    1  UNL1        0.3638
      3 C          17.5606   33.8266    4.1362 C.2     1  UNL1        0.2736
      4 O          17.0826   35.8017    2.0531 O.2     1  UNL1       -0.2434
      5 O          18.1838   33.5028    3.0887 O.2     1  UNL1       -0.2660
      6 N          15.2457   36.5635    3.1834 N.ar    1  UNL1       -0.1687
      7 N          16.5365   34.8366    4.0662 N.ar    1  UNL1       -0.1919
      8 S          15.3073   35.0797    5.1622 S.2     1  UNL1        0.0367
      9 C          17.9116   33.1698    5.4186 C.ar    1  UNL1        0.0532
     10 C          18.7748   33.7727    6.3648 C.ar    1  UNL1       -0.0172
     11 C          19.4504   35.0776    6.1072 C.3     1  UNL1        0.0312
     12 C          19.0474   33.1228    7.5732 C.ar    1  UNL1       -0.0041
     13 C          18.4679   31.8853    7.8586 C.ar    1  UNL1       -0.0003
     14 C          17.6115   31.2875    6.9339 C.ar    1  UNL1        0.0001
     15 C          17.3346   31.9277    5.7243 C.ar    1  UNL1        0.0044
     16 C          12.4779   37.6826    3.8832 C.2     1  UNL1        0.2509
     17 O          12.6788   37.6996    2.6379 O.2     1  UNL1       -0.2698
     18 N          13.3936   37.0073    4.7553 N.am    1  UNL1       -0.2594
     19 H          13.1976   37.0205    5.7200 H       1  UNL1        0.1571
     20 C           7.8521   40.3344    6.0774 C.3     1  UNL1        0.0310
     21 C           9.0445   39.6512    5.5122 C.ar    1  UNL1       -0.0218
     22 C           8.9241   38.8809    4.3524 C.ar    1  UNL1       -0.0041
     23 C          10.0458   38.2380    3.8207 C.ar    1  UNL1        0.0042
     24 C          11.2961   38.3606    4.4445 C.ar    1  UNL1        0.0537
     25 C          11.4080   39.1359    5.6086 C.ar    1  UNL1        0.0042
     26 C          10.2863   39.7789    6.1403 C.ar    1  UNL1       -0.0041
@<TRIPOS>BOND
     1    20    21    1
     2    22    23   ar
     3    24    25   ar
     4    24    16    1
     5    26    21   ar
     6    16    18   am
     7     1     8   ar
     8     2     6   ar
     9     2     7   ar
    10     3     9    1
    11    10    12   ar
    12    11    10    1
    13    13    14   ar
    14    15     9   ar
    15    18     1    1
    16     7     8   ar
    17     7     3   am
    18    21    22   ar
    19    23    24   ar
    20    25    26   ar
    21    16    17    2
    22     1     6   ar
    23     2     4    2
    24     3     5    2
    25     9    10   ar
    26    12    13   ar
    27    14    15   ar
    28    18    19    1
@<TRIPOS>MOLECULE
MolPort-002-865-769 5540781 CHEMBL1423125 CSSS00138423848 MCULE-4762641888 PubChem-4269270 ZINC000005540781 ZINC05540781
 26 28 0 0 0
SMALL
GASTEIGER

@<TRIPOS>ATOM
      1 C          12.5185   38.0045    9.2986 C.ar    1  UNL1        0.1866
      2 C          11.9445   39.7796   10.5453 C.ar    1  UNL1        0.3638
      3 C           9.8609   40.8349    9.6142 C.2     1  UNL1        0.2736
      4 O          12.0618   40.5905   11.5023 O.2     1  UNL1       -0.2434
      5 O           9.6009   41.4883   10.6610 O.2     1  UNL1       -0.2660
      6 N          12.8319   38.7512   10.3815 N.ar    1  UNL1       -0.1687
      7 N          10.9409   39.8824    9.6249 N.ar    1  UNL1       -0.1919
      8 S          11.1576   38.6173    8.5648 S.2     1  UNL1        0.0367
      9 C           9.0570   41.0776    8.3919 C.ar    1  UNL1        0.0532
     10 C           9.6301   41.5757    7.1973 C.ar    1  UNL1       -0.0172
     11 C          11.0685   41.9609    7.1053 C.3     1  UNL1        0.0312
     12 C           8.8312   41.7565    6.0633 C.ar    1  UNL1       -0.0041
     13 C           7.4717   41.4415    6.0968 C.ar    1  UNL1       -0.0003
     14 C           6.9007   40.9445    7.2685 C.ar    1  UNL1        0.0001
     15 C           7.6896   40.7623    8.4060 C.ar    1  UNL1        0.0044
     16 C          14.6639   36.8014    8.6693 C.2     1  UNL1        0.2509
     17 O          15.3747   37.8180    8.8988 O.2     1  UNL1       -0.2698
     18 N          13.2434   36.8541    8.8552 N.am    1  UNL1       -0.2594
     19 H          12.7283   36.0373    8.6632 H       1  UNL1        0.1571
     20 C          17.1386   31.9165    6.8643 C.3     1  UNL1        0.0310
     21 C          16.5011   33.1757    7.3292 C.ar    1  UNL1       -0.0218
     22 C          15.4955   33.1331    8.2987 C.ar    1  UNL1       -0.0041
     23 C          14.8956   34.3177    8.7361 C.ar    1  UNL1        0.0042
     24 C          15.2967   35.5534    8.2076 C.ar    1  UNL1        0.0537
     25 C          16.3072   35.5870    7.2346 C.ar    1  UNL1        0.0042
     26 C          16.9071   34.4024    6.7972 C.ar    1  UNL1       -0.0041
@<TRIPOS>BOND
     1    20    21    1
     2    22    23   ar
     3    24    25   ar
     4    24    16    1
     5    26    21   ar
     6    16    18   am
     7     1     8   ar
     8     2     6   ar
     9     2     7   ar
    10     3     9    1
    11    10    12   ar
    12    11    10    1
    13    13    14   ar
    14    15     9   ar
    15    18     1    1
    16     7     8   ar
    17     7     3   am
    18    21    22   ar
    19    23    24   ar
    20    25    26   ar
    21    16    17    2
    22     1     6   ar
    23     2     4    2
    24     3     5    2
    25     9    10   ar
    26    12    13   ar
    27    14    15   ar
    28    18    19    1
@<TRIPOS>MOLECULE
MolPort-002-865-769 5540781 CHEMBL1423125 CSSS00138423848 MCULE-4762641888 PubChem-4269270 ZINC000005540781 ZINC05540781
 26 28 0 0 0
SMALL
GASTEIGER

@<TRIPOS>ATOM
      1 C          10.6711   41.6138    8.0376 C.ar    1  UNL1        0.1866
      2 C          12.2066   40.0037    8.3281 C.ar    1  UNL1        0.3638
      3 C          14.5125   41.0029    8.2479 C.2     1  UNL1        0.2736
      4 O          12.6030   38.8253    8.5319 O.2     1  UNL1       -0.2434
      5 O          15.0724   40.0109    8.7891 O.2     1  UNL1       -0.2660
      6 N          10.8717   40.2949    8.2583 N.ar    1  UNL1       -0.1687
      7 N          13.0756   41.0438    8.1614 N.ar    1  UNL1       -0.1919
      8 S          12.1341   42.3981    7.9357 S.2     1  UNL1        0.0367
      9 C          15.3509   42.0955    7.6980 C.ar    1  UNL1        0.0532
     10 C          16.6791   42.3206    8.1328 C.ar    1  UNL1       -0.0172
     11 C          17.3043   41.5215    9.2265 C.3     1  UNL1        0.0312
     12 C          17.4367   43.3462    7.5574 C.ar    1  UNL1       -0.0041
     13 C          16.8959   44.1468    6.5499 C.ar    1  UNL1       -0.0003
     14 C          15.5898   43.9275    6.1118 C.ar    1  UNL1        0.0001
     15 C          14.8253   42.9073    6.6811 C.ar    1  UNL1        0.0044
     16 C           8.3472   42.1672    8.8972 C.2     1  UNL1        0.2509
     17 O           8.5160   41.5092    9.9602 O.2     1  UNL1       -0.2698
     18 N           9.3920   42.2427    7.9186 N.am    1  UNL1       -0.2594
     19 H           9.2160   42.7665    7.1038 H       1  UNL1        0.1571
     20 C           3.3482   44.8852    7.9662 C.3     1  UNL1        0.0310
     21 C           4.6363   44.1845    8.2065 C.ar    1  UNL1       -0.0218
     22 C           5.7643   44.5176    7.4516 C.ar    1  UNL1       -0.0041
     23 C           6.9762   43.8583    7.6776 C.ar    1  UNL1        0.0042
     24 C           7.0693   42.8614    8.6598 C.ar    1  UNL1        0.0537
     25 C           5.9319   42.5333    9.4131 C.ar    1  UNL1        0.0042
     26 C           4.7200   43.1925    9.1871 C.ar    1  UNL1       -0.0041
@<TRIPOS>BOND
     1    20    21    1
     2    22    23   ar
     3    24    25   ar
     4    24    16    1
     5    26    21   ar
     6    16    18   am
     7     1     8   ar
     8     2     6   ar
     9     2     7   ar
    10     3     9    1
    11    10    12   ar
    12    11    10    1
    13    13    14   ar
    14    15     9   ar
    15    18     1    1
    16     7     8   ar
    17     7     3   am
    18    21    22   ar
    19    23    24   ar
    20    25    26   ar
    21    16    17    2
    22     1     6   ar
    23     2     4    2
    24     3     5    2
    25     9    10   ar
    26    12    13   ar
    27    14    15   ar
    28    18    19    1
@<TRIPOS>MOLECULE
MolPort-002-865-769 5540781 CHEMBL1423125 CSSS00138423848 MCULE-4762641888 PubChem-4269270 ZINC000005540781 ZINC05540781
 26 28 0 0 0
SMALL
GASTEIGER

@<TRIPOS>ATOM
      1 C           6.8908   42.3753    6.8084 C.ar    1  UNL1        0.1866
      2 C           5.3672   43.9879    7.1440 C.ar    1  UNL1        0.3638
      3 C           4.1126   43.5422    9.2769 C.2     1  UNL1        0.2736
      4 O           4.7514   45.0532    6.8733 O.2     1  UNL1       -0.2434
      5 O           3.6601   44.7152    9.3763 O.2     1  UNL1       -0.2660
      6 N           6.3657   43.5262    6.3308 N.ar    1  UNL1       -0.1687
      7 N           5.0732   43.2394    8.2477 N.ar    1  UNL1       -0.1919
      8 S           6.1231   41.9478    8.2205 S.2     1  UNL1        0.0367
      9 C           3.6292   42.4990   10.2136 C.ar    1  UNL1        0.0532
     10 C           3.5185   41.1388    9.8377 C.ar    1  UNL1       -0.0172
     11 C           3.8101   40.6702    8.4517 C.3     1  UNL1        0.0312
     12 C           3.0867   40.1905   10.7711 C.ar    1  UNL1       -0.0041
     13 C           2.7708   40.5733   12.0758 C.ar    1  UNL1       -0.0003
     14 C           2.8831   41.9109   12.4556 C.ar    1  UNL1        0.0001
     15 C           3.3117   42.8649   11.5306 C.ar    1  UNL1        0.0044
     16 C           7.8799   40.2618    5.8081 C.2     1  UNL1        0.2509
     17 O           6.8219   39.6018    5.9990 O.2     1  UNL1       -0.2698
     18 N           7.9538   41.6398    6.1963 N.am    1  UNL1       -0.2594
     19 H           8.7994   42.1155    6.0290 H       1  UNL1        0.1571
     20 C          12.4445   37.7239    3.3651 C.3     1  UNL1        0.0310
     21 C          11.2679   38.3779    3.9943 C.ar    1  UNL1       -0.0218
     22 C          11.3924   38.9836    5.2476 C.ar    1  UNL1       -0.0041
     23 C          10.2854   39.5987    5.8397 C.ar    1  UNL1        0.0042
     24 C           9.0461   39.6130    5.1831 C.ar    1  UNL1        0.0537
     25 C           8.9300   39.0026    3.9251 C.ar    1  UNL1        0.0042
     26 C          10.0369   38.3874    3.3330 C.ar    1  UNL1       -0.0041
@<TRIPOS>BOND
     1    20    21    1
     2    22    23   ar
     3    24    25   ar
     4    24    16    1
     5    26    21   ar
     6    16    18   am
     7     1     8   ar
     8     2     6   ar
     9     2     7   ar
    10     3     9    1
    11    10    12   ar
    12    11    10    1
    13    13    14   ar
    14    15     9   ar
    15    18     1    1
    16     7     8   ar
    17     7     3   am
    18    21    22   ar
    19    23    24   ar
    20    25    26   ar
    21    16    17    2
    22     1     6   ar
    23     2     4    2
    24     3     5    2
    25     9    10   ar
    26    12    13   ar
    27    14    15   ar
    28    18    19    1
