@<TRIPOS>MOLECULE
MolPort-020-278-672 MCULE-2162936154 PubChem-110255544
 29 32 0 0 0
SMALL
GASTEIGER

@<TRIPOS>ATOM
      1 C          16.4184   41.8385    8.4358 C.ar    1  UNL1        0.1357
      2 C          14.1807   41.7871    7.6550 C.ar    1  UNL1        0.1411
      3 C          15.6051   43.5319    6.9379 C.ar    1  UNL1        0.0635
      4 C          16.6482   43.0023    7.6942 C.ar    1  UNL1        0.0492
      5 C          15.8185   44.7671    6.1399 C.3     1  UNL1        0.0522
      6 N          15.1891   41.2592    8.3978 N.ar    1  UNL1       -0.2159
      7 N          14.3938   42.9192    6.9302 N.ar    1  UNL1       -0.2349
      8 C          12.8468   41.1174    7.6443 C.3     1  UNL1        0.0746
      9 C          11.7721   42.0695    7.1387 C.3     1  UNL1        0.0104
     10 C          10.4258   41.3651    7.1563 C.3     1  UNL1        0.0178
     11 C          10.1207   40.8666    8.5720 C.3     1  UNL1        0.0725
     12 C          12.4874   40.6095    9.0464 C.3     1  UNL1        0.0800
     13 N          11.1649   39.9703    9.0923 N.3     1  UNL1       -0.2660
     14 C          11.1893   38.7249    8.3296 C.3     1  UNL1        0.1368
     15 C          11.7667   37.6276    9.1570 C.ar    1  UNL1        0.1335
     16 C          11.9423   36.0968   10.6189 C.ar    1  UNL1        0.1186
     17 C          13.1446   36.2183    9.9499 C.ar    1  UNL1        0.0943
     18 N          11.0721   36.9915   10.1158 N.ar    1  UNL1       -0.2281
     19 N          13.0315   37.1895    9.0255 N.ar    1  UNL1       -0.3385
     20 H          13.7185   37.5072    8.3960 H       1  UNL1        0.1672
     21 N          17.4437   41.2352    9.2380 N.pl3   1  UNL1       -0.2833
     22 H          18.2644   41.7636    9.3662 H       1  UNL1        0.1550
     23 C          19.6526   37.0076   10.3707 C.3     1  UNL1        0.0521
     24 C          18.4590   37.8902   10.4377 C.ar    1  UNL1        0.0608
     25 C          17.4096   39.9506    9.8745 C.ar    1  UNL1        0.1328
     26 C          16.2485   39.5580   10.5460 C.ar    1  UNL1        0.0344
     27 C          16.2041   38.3097   11.1692 C.ar    1  UNL1        0.0041
     28 C          17.3151   37.4668   11.1170 C.ar    1  UNL1        0.0148
     29 N          18.4820   39.1102    9.8371 N.ar    1  UNL1       -0.2349
@<TRIPOS>BOND
     1    23    24    1
     2    25    29   ar
     3    25    21    1
     4    26    27   ar
     5    28    24   ar
     6     2     6   ar
     7     3     7   ar
     8     4     1   ar
     9     5     3    1
    10     8     2    1
    11     8     9    1
    12     9    10    1
    13    10    11    1
    14    11    13    1
    15    12    13    1
    16    12     8    1
    17    14    13    1
    18    14    15    1
    19    16    18   ar
    20    17    19   ar
    21    21     1    1
    22    19    15   ar
    23    24    29   ar
    24    25    26   ar
    25    27    28   ar
    26     1     6   ar
    27     2     7   ar
    28     3     4   ar
    29    15    18   ar
    30    16    17   ar
    31    21    22    1
    32    19    20    1
@<TRIPOS>MOLECULE
MolPort-020-278-672 MCULE-2162936154 PubChem-110255544
 29 32 0 0 0
SMALL
GASTEIGER

@<TRIPOS>ATOM
      1 C          16.0857   41.9277    8.2236 C.ar    1  UNL1        0.1357
      2 C          13.7931   42.1974    7.6840 C.ar    1  UNL1        0.1411
      3 C          15.3670   43.7195    6.7931 C.ar    1  UNL1        0.0635
      4 C          16.3986   43.0462    7.4435 C.ar    1  UNL1        0.0492
      5 C          15.6681   44.9108    5.9576 C.3     1  UNL1        0.0522
      6 N          14.7894   41.5307    8.3246 N.ar    1  UNL1       -0.2159
      7 N          14.0869   43.2869    6.9229 N.ar    1  UNL1       -0.2349
      8 C          12.3839   41.7259    7.8246 C.3     1  UNL1        0.0746
      9 C          12.1623   41.0972    9.1932 C.3     1  UNL1        0.0104
     10 C          10.7260   40.6125    9.2985 C.3     1  UNL1        0.0178
     11 C          10.4285   39.6248    8.1663 C.3     1  UNL1        0.0725
     12 C          12.0387   40.7213    6.7181 C.3     1  UNL1        0.0800
     13 N          10.6684   40.2031    6.8350 N.3     1  UNL1       -0.2660
     14 C           9.7095   41.2717    6.5668 C.3     1  UNL1        0.1368
     15 C           8.3186   40.7381    6.6192 C.ar    1  UNL1        0.1335
     16 C           6.5723   39.6365    6.1210 C.ar    1  UNL1        0.1186
     17 C           6.3102   40.4146    7.2317 C.ar    1  UNL1        0.0943
     18 N           7.8443   39.8445    5.7344 N.ar    1  UNL1       -0.2281
     19 N           7.4172   41.1126    7.5445 N.ar    1  UNL1       -0.3385
     20 H           7.5396   41.7522    8.2829 H       1  UNL1        0.1672
     21 N          17.0941   41.1841    8.9227 N.pl3   1  UNL1       -0.2833
     22 H          18.0254   41.4674    8.7754 H       1  UNL1        0.1550
     23 C          14.1443   38.5145   11.7874 C.3     1  UNL1        0.0521
     24 C          15.4901   38.7628   11.2082 C.ar    1  UNL1        0.0608
     25 C          16.9006   40.0754    9.8113 C.ar    1  UNL1        0.1328
     26 C          17.9882   39.2509   10.1125 C.ar    1  UNL1        0.0344
     27 C          17.8114   38.1687   10.9764 C.ar    1  UNL1        0.0041
     28 C          16.5550   37.9195   11.5303 C.ar    1  UNL1        0.0148
     29 N          15.6831   39.8119   10.3645 N.ar    1  UNL1       -0.2349
@<TRIPOS>BOND
     1    23    24    1
     2    25    29   ar
     3    25    21    1
     4    26    27   ar
     5    28    24   ar
     6     2     6   ar
     7     3     7   ar
     8     4     1   ar
     9     5     3    1
    10     8     2    1
    11     8     9    1
    12     9    10    1
    13    10    11    1
    14    11    13    1
    15    12    13    1
    16    12     8    1
    17    14    13    1
    18    14    15    1
    19    16    18   ar
    20    17    19   ar
    21    21     1    1
    22    19    15   ar
    23    24    29   ar
    24    25    26   ar
    25    27    28   ar
    26     1     6   ar
    27     2     7   ar
    28     3     4   ar
    29    15    18   ar
    30    16    17   ar
    31    21    22    1
    32    19    20    1
@<TRIPOS>MOLECULE
MolPort-020-278-672 MCULE-2162936154 PubChem-110255544
 29 32 0 0 0
SMALL
GASTEIGER

@<TRIPOS>ATOM
      1 C          16.1836   41.7924    8.3954 C.ar    1  UNL1        0.1357
      2 C          13.9100   41.8490    7.7264 C.ar    1  UNL1        0.1411
      3 C          15.3968   43.4766    6.8731 C.ar    1  UNL1        0.0635
      4 C          16.4438   42.9123    7.5983 C.ar    1  UNL1        0.0492
      5 C          15.6420   44.6666    6.0177 C.3     1  UNL1        0.0522
      6 N          14.9219   41.2880    8.4398 N.ar    1  UNL1       -0.2159
      7 N          14.1526   42.9389    6.9481 N.ar    1  UNL1       -0.2349
      8 C          12.5402   41.2618    7.8067 C.3     1  UNL1        0.0746
      9 C          12.6060   39.7411    7.7869 C.3     1  UNL1        0.0104
     10 C          11.1974   39.1747    7.8522 C.3     1  UNL1        0.0178
     11 C          10.3653   39.7210    6.6881 C.3     1  UNL1        0.0725
     12 C          11.6677   41.7692    6.6516 C.3     1  UNL1        0.0800
     13 N          10.3166   41.1913    6.6700 N.3     1  UNL1       -0.2660
     14 C           9.5806   41.6878    7.8299 C.3     1  UNL1        0.1368
     15 C           8.4005   42.4834    7.3867 C.ar    1  UNL1        0.1335
     16 C           6.7023   43.7576    7.4481 C.ar    1  UNL1        0.1186
     17 C           6.9000   43.3359    6.1478 C.ar    1  UNL1        0.0943
     18 N           7.6530   43.2150    8.2307 N.ar    1  UNL1       -0.2281
     19 N           7.9752   42.5277    6.1115 N.ar    1  UNL1       -0.3385
     20 H           8.3625   42.0723    5.3293 H       1  UNL1        0.1672
     21 N          17.2108   41.1574    9.1703 N.pl3   1  UNL1       -0.2833
     22 H          18.0722   41.6311    9.2237 H       1  UNL1        0.1550
     23 C          19.2439   36.9054   10.5198 C.3     1  UNL1        0.0521
     24 C          18.0900   37.8413   10.5448 C.ar    1  UNL1        0.0608
     25 C          17.1262   39.9118    9.8757 C.ar    1  UNL1        0.1328
     26 C          15.9542   39.6068   10.5735 C.ar    1  UNL1        0.0344
     27 C          15.8607   38.3972   11.2637 C.ar    1  UNL1        0.0041
     28 C          16.9339   37.5053   11.2518 C.ar    1  UNL1        0.0148
     29 N          18.1610   39.0249    9.8787 N.ar    1  UNL1       -0.2349
@<TRIPOS>BOND
     1    23    24    1
     2    25    29   ar
     3    25    21    1
     4    26    27   ar
     5    28    24   ar
     6     2     6   ar
     7     3     7   ar
     8     4     1   ar
     9     5     3    1
    10     8     2    1
    11     8     9    1
    12     9    10    1
    13    10    11    1
    14    11    13    1
    15    12    13    1
    16    12     8    1
    17    14    13    1
    18    14    15    1
    19    16    18   ar
    20    17    19   ar
    21    21     1    1
    22    19    15   ar
    23    24    29   ar
    24    25    26   ar
    25    27    28   ar
    26     1     6   ar
    27     2     7   ar
    28     3     4   ar
    29    15    18   ar
    30    16    17   ar
    31    21    22    1
    32    19    20    1
@<TRIPOS>MOLECULE
MolPort-020-278-672 MCULE-2162936154 PubChem-110255544
 29 32 0 0 0
SMALL
GASTEIGER

@<TRIPOS>ATOM
      1 C          13.0569   41.0606    8.5204 C.ar    1  UNL1        0.1357
      2 C          11.2478   41.2642   10.0387 C.ar    1  UNL1        0.1411
      3 C          13.1282   39.9749   10.6627 C.ar    1  UNL1        0.0635
      4 C          13.7359   40.2550    9.4408 C.ar    1  UNL1        0.0492
      5 C          13.8245   39.1222   11.6606 C.3     1  UNL1        0.0522
      6 N          11.8284   41.5457    8.8425 N.ar    1  UNL1       -0.2159
      7 N          11.8999   40.4812   10.9411 N.ar    1  UNL1       -0.2349
      8 C           9.8968   41.8179   10.3488 C.3     1  UNL1        0.0746
      9 C           9.4877   41.4692   11.7730 C.3     1  UNL1        0.0104
     10 C           8.1034   42.0308   12.0516 C.3     1  UNL1        0.0178
     11 C           7.1066   41.4836   11.0256 C.3     1  UNL1        0.0725
     12 C           8.8560   41.2885    9.3541 C.3     1  UNL1        0.0800
     13 N           7.5014   41.7816    9.6401 N.3     1  UNL1       -0.2660
     14 C           7.4347   43.2196    9.3927 C.3     1  UNL1        0.1368
     15 C           6.0497   43.6095    9.0029 C.ar    1  UNL1        0.1335
     16 C           4.4412   44.6544    8.0907 C.ar    1  UNL1        0.1186
     17 C           3.9291   43.6420    8.8785 C.ar    1  UNL1        0.0943
     18 N           5.7842   44.6324    8.1726 N.ar    1  UNL1       -0.2281
     19 N           4.9496   42.9824    9.4564 N.ar    1  UNL1       -0.3385
     20 H           4.9019   42.2152   10.0715 H       1  UNL1        0.1672
     21 N          13.6190   41.3919    7.2425 N.pl3   1  UNL1       -0.2833
     22 H          13.4202   40.7711    6.5047 H       1  UNL1        0.1550
     23 C          17.7860   43.9116    7.8102 C.3     1  UNL1        0.0521
     24 C          16.4507   43.7660    7.1747 C.ar    1  UNL1        0.0608
     25 C          14.4371   42.5238    6.9172 C.ar    1  UNL1        0.1328
     26 C          13.9561   43.4675    6.0053 C.ar    1  UNL1        0.0344
     27 C          14.7439   44.5733    5.6811 C.ar    1  UNL1        0.0041
     28 C          16.0007   44.7274    6.2678 C.ar    1  UNL1        0.0148
     29 N          15.6677   42.6958    7.4771 N.ar    1  UNL1       -0.2349
@<TRIPOS>BOND
     1    23    24    1
     2    25    29   ar
     3    25    21    1
     4    26    27   ar
     5    28    24   ar
     6     2     6   ar
     7     3     7   ar
     8     4     1   ar
     9     5     3    1
    10     8     2    1
    11     8     9    1
    12     9    10    1
    13    10    11    1
    14    11    13    1
    15    12    13    1
    16    12     8    1
    17    14    13    1
    18    14    15    1
    19    16    18   ar
    20    17    19   ar
    21    21     1    1
    22    19    15   ar
    23    24    29   ar
    24    25    26   ar
    25    27    28   ar
    26     1     6   ar
    27     2     7   ar
    28     3     4   ar
    29    15    18   ar
    30    16    17   ar
    31    21    22    1
    32    19    20    1
@<TRIPOS>MOLECULE
MolPort-020-278-672 MCULE-2162936154 PubChem-110255544
 29 32 0 0 0
SMALL
GASTEIGER

@<TRIPOS>ATOM
      1 C          15.0229   40.3987    9.3784 C.ar    1  UNL1        0.1357
      2 C          12.6536   40.4769    9.3785 C.ar    1  UNL1        0.1411
      3 C          13.7431   38.7409   10.5561 C.ar    1  UNL1        0.0635
      4 C          14.9829   39.2496   10.1754 C.ar    1  UNL1        0.0492
      5 C          13.6683   37.5217   11.4022 C.3     1  UNL1        0.0522
      6 N          13.8561   40.9844    8.9993 N.ar    1  UNL1       -0.2159
      7 N          12.6037   39.3593   10.1536 N.ar    1  UNL1       -0.2349
      8 C          11.3981   41.1530    8.9376 C.3     1  UNL1        0.0746
      9 C          10.7563   41.9023   10.0969 C.3     1  UNL1        0.0104
     10 C           9.4737   42.5639    9.6210 C.3     1  UNL1        0.0178
     11 C           8.5311   41.5067    9.0384 C.3     1  UNL1        0.0725
     12 C          10.4119   40.1323    8.3559 C.3     1  UNL1        0.0800
     13 N           9.1449   40.7481    7.9374 N.3     1  UNL1       -0.2660
     14 C           9.3730   41.6196    6.7876 C.3     1  UNL1        0.1368
     15 C           9.6829   40.8039    5.5790 C.ar    1  UNL1        0.1335
     16 C           9.4665   39.4168    3.9851 C.ar    1  UNL1        0.1186
     17 C          10.7322   39.9672    3.9321 C.ar    1  UNL1        0.0943
     18 N           8.8048   39.9474    5.0299 N.ar    1  UNL1       -0.2281
     19 N          10.8676   40.8442    4.9435 N.ar    1  UNL1       -0.3385
     20 H          11.6549   41.3912    5.1674 H       1  UNL1        0.1672
     21 N          16.2617   40.9802    8.9472 N.pl3   1  UNL1       -0.2833
     22 H          17.0830   40.5211    9.2371 H       1  UNL1        0.1550
     23 C          14.5555   44.1101    5.5816 C.3     1  UNL1        0.0521
     24 C          15.6357   43.6875    6.5105 C.ar    1  UNL1        0.0608
     25 C          16.4404   42.1535    8.1424 C.ar    1  UNL1        0.1328
     26 C          17.6323   42.8750    8.2519 C.ar    1  UNL1        0.0344
     27 C          17.8171   44.0188    7.4734 C.ar    1  UNL1        0.0041
     28 C          16.8141   44.4314    6.5951 C.ar    1  UNL1        0.0148
     29 N          15.4753   42.5761    7.2777 N.ar    1  UNL1       -0.2349
@<TRIPOS>BOND
     1    23    24    1
     2    25    29   ar
     3    25    21    1
     4    26    27   ar
     5    28    24   ar
     6     2     6   ar
     7     3     7   ar
     8     4     1   ar
     9     5     3    1
    10     8     2    1
    11     8     9    1
    12     9    10    1
    13    10    11    1
    14    11    13    1
    15    12    13    1
    16    12     8    1
    17    14    13    1
    18    14    15    1
    19    16    18   ar
    20    17    19   ar
    21    21     1    1
    22    19    15   ar
    23    24    29   ar
    24    25    26   ar
    25    27    28   ar
    26     1     6   ar
    27     2     7   ar
    28     3     4   ar
    29    15    18   ar
    30    16    17   ar
    31    21    22    1
    32    19    20    1
@<TRIPOS>MOLECULE
MolPort-020-278-672 MCULE-2162936154 PubChem-110255544
 29 32 0 0 0
SMALL
GASTEIGER

@<TRIPOS>ATOM
      1 C          13.8012   39.9331    9.2436 C.ar    1  UNL1        0.1357
      2 C          11.5171   40.4022    9.6707 C.ar    1  UNL1        0.1411
      3 C          12.2956   38.1831    9.9097 C.ar    1  UNL1        0.0635
      4 C          13.5786   38.5853    9.5456 C.ar    1  UNL1        0.0492
      5 C          12.0281   36.7584   10.2360 C.3     1  UNL1        0.0522
      6 N          12.7639   40.8090    9.3137 N.ar    1  UNL1       -0.2159
      7 N          11.2900   39.0932    9.9662 N.ar    1  UNL1       -0.2349
      8 C          10.4080   41.3992    9.7332 C.3     1  UNL1        0.0746
      9 C          10.9605   42.8058    9.9162 C.3     1  UNL1        0.0104
     10 C           9.8083   43.7937    9.9935 C.3     1  UNL1        0.0178
     11 C           8.8662   43.4019   11.1357 C.3     1  UNL1        0.0725
     12 C           9.4401   41.0579   10.8732 C.3     1  UNL1        0.0800
     13 N           8.3469   42.0326   10.9950 N.3     1  UNL1       -0.2660
     14 C           7.4691   41.9412    9.8312 C.3     1  UNL1        0.1368
     15 C           6.1191   41.4615   10.2431 C.ar    1  UNL1        0.1335
     16 C           4.4912   40.8595   11.4673 C.ar    1  UNL1        0.1186
     17 C           4.1215   40.7456   10.1413 C.ar    1  UNL1        0.0943
     18 N           5.7571   41.3117   11.5287 N.ar    1  UNL1       -0.2281
     19 N           5.1547   41.1259    9.3677 N.ar    1  UNL1       -0.3385
     20 H           5.1955   41.1524    8.3844 H       1  UNL1        0.1672
     21 N          15.0950   40.4213    8.8609 N.pl3   1  UNL1       -0.2833
     22 H          15.8673   39.8858    9.1543 H       1  UNL1        0.1550
     23 C          18.1587   44.0803    7.7383 C.3     1  UNL1        0.0521
     24 C          16.8605   43.3858    7.5367 C.ar    1  UNL1        0.0608
     25 C          15.3918   41.5999    8.1000 C.ar    1  UNL1        0.1328
     26 C          14.4479   42.0693    7.1823 C.ar    1  UNL1        0.0344
     27 C          14.7262   43.2157    6.4362 C.ar    1  UNL1        0.0041
     28 C          15.9399   43.8817    6.6116 C.ar    1  UNL1        0.0148
     29 N          16.5702   42.2673    8.2538 N.ar    1  UNL1       -0.2349
@<TRIPOS>BOND
     1    23    24    1
     2    25    29   ar
     3    25    21    1
     4    26    27   ar
     5    28    24   ar
     6     2     6   ar
     7     3     7   ar
     8     4     1   ar
     9     5     3    1
    10     8     2    1
    11     8     9    1
    12     9    10    1
    13    10    11    1
    14    11    13    1
    15    12    13    1
    16    12     8    1
    17    14    13    1
    18    14    15    1
    19    16    18   ar
    20    17    19   ar
    21    21     1    1
    22    19    15   ar
    23    24    29   ar
    24    25    26   ar
    25    27    28   ar
    26     1     6   ar
    27     2     7   ar
    28     3     4   ar
    29    15    18   ar
    30    16    17   ar
    31    21    22    1
    32    19    20    1
@<TRIPOS>MOLECULE
MolPort-020-278-672 MCULE-2162936154 PubChem-110255544
 29 32 0 0 0
SMALL
GASTEIGER

@<TRIPOS>ATOM
      1 C          16.4387   41.8813    8.4034 C.ar    1  UNL1        0.1357
      2 C          14.2141   42.0747    7.6075 C.ar    1  UNL1        0.1411
      3 C          15.8238   43.6575    6.9067 C.ar    1  UNL1        0.0635
      4 C          16.7982   43.0159    7.6679 C.ar    1  UNL1        0.0492
      5 C          16.1751   44.8650    6.1151 C.3     1  UNL1        0.0522
      6 N          15.1543   41.4384    8.3549 N.ar    1  UNL1       -0.2159
      7 N          14.5535   43.1794    6.8886 N.ar    1  UNL1       -0.2349
      8 C          12.8158   41.5531    7.5853 C.3     1  UNL1        0.0746
      9 C          12.3465   41.3360    6.1535 C.3     1  UNL1        0.0104
     10 C          10.9164   40.8224    6.1642 C.3     1  UNL1        0.0178
     11 C          10.0168   41.8113    6.9116 C.3     1  UNL1        0.0725
     12 C          11.8695   42.5167    8.3124 C.3     1  UNL1        0.0800
     13 N          10.4727   42.0604    8.2880 N.3     1  UNL1       -0.2660
     14 C          10.3319   40.8509    9.0947 C.3     1  UNL1        0.1368
     15 C           9.4552   41.1175   10.2705 C.ar    1  UNL1        0.1335
     16 C           7.8074   41.7808   11.4350 C.ar    1  UNL1        0.1186
     17 C           8.7432   41.2026   12.2702 C.ar    1  UNL1        0.0943
     18 N           8.2615   41.7269   10.1694 N.ar    1  UNL1       -0.2281
     19 N           9.7867   40.7846   11.5307 N.ar    1  UNL1       -0.3385
     20 H          10.6065   40.3368   11.8415 H       1  UNL1        0.1672
     21 N          17.3871   41.1682    9.2100 N.pl3   1  UNL1       -0.2833
     22 H          18.3013   41.5327    9.2329 H       1  UNL1        0.1550
     23 C          14.3430   38.3250   11.7955 C.3     1  UNL1        0.0521
     24 C          15.6987   38.5871   11.2464 C.ar    1  UNL1        0.0608
     25 C          17.1556   39.9851    9.9867 C.ar    1  UNL1        0.1328
     26 C          18.2163   39.1027   10.2094 C.ar    1  UNL1        0.0344
     27 C          18.0024   37.9480   10.9639 C.ar    1  UNL1        0.0041
     28 C          16.7362   37.6846   11.4880 C.ar    1  UNL1        0.0148
     29 N          15.9278   39.7065   10.5087 N.ar    1  UNL1       -0.2349
@<TRIPOS>BOND
     1    23    24    1
     2    25    29   ar
     3    25    21    1
     4    26    27   ar
     5    28    24   ar
     6     2     6   ar
     7     3     7   ar
     8     4     1   ar
     9     5     3    1
    10     8     2    1
    11     8     9    1
    12     9    10    1
    13    10    11    1
    14    11    13    1
    15    12    13    1
    16    12     8    1
    17    14    13    1
    18    14    15    1
    19    16    18   ar
    20    17    19   ar
    21    21     1    1
    22    19    15   ar
    23    24    29   ar
    24    25    26   ar
    25    27    28   ar
    26     1     6   ar
    27     2     7   ar
    28     3     4   ar
    29    15    18   ar
    30    16    17   ar
    31    21    22    1
    32    19    20    1
@<TRIPOS>MOLECULE
MolPort-020-278-672 MCULE-2162936154 PubChem-110255544
 29 32 0 0 0
SMALL
GASTEIGER

@<TRIPOS>ATOM
      1 C          14.8847   41.4275    8.1241 C.ar    1  UNL1        0.1357
      2 C          12.7605   41.9661    7.2201 C.ar    1  UNL1        0.1411
      3 C          14.6329   43.2703    6.6030 C.ar    1  UNL1        0.0635
      4 C          15.4549   42.4867    7.4098 C.ar    1  UNL1        0.0492
      5 C          15.2093   44.4024    5.8323 C.3     1  UNL1        0.0522
      6 N          13.5503   41.1932    8.0114 N.ar    1  UNL1       -0.2159
      7 N          13.3053   42.9992    6.5212 N.ar    1  UNL1       -0.2349
      8 C          11.3000   41.6723    7.1278 C.3     1  UNL1        0.0746
      9 C          10.5597   42.2490    8.3265 C.3     1  UNL1        0.0104
     10 C           9.0808   41.9187    8.2122 C.3     1  UNL1        0.0178
     11 C           8.8957   40.4019    8.1080 C.3     1  UNL1        0.0725
     12 C          11.0591   40.1603    7.0339 C.3     1  UNL1        0.0800
     13 N           9.6307   39.8199    6.9742 N.3     1  UNL1       -0.2660
     14 C           9.0628   40.2836    5.7109 C.3     1  UNL1        0.1368
     15 C           9.3657   39.3095    4.6239 C.ar    1  UNL1        0.1335
     16 C           9.4967   38.4349    2.6928 C.ar    1  UNL1        0.1186
     17 C          10.0212   37.5557    3.6200 C.ar    1  UNL1        0.0943
     18 N           9.0810   39.5440    3.3316 N.ar    1  UNL1       -0.2281
     19 N           9.9358   38.1111    4.8426 N.ar    1  UNL1       -0.3385
     20 H          10.2249   37.7274    5.7019 H       1  UNL1        0.1672
     21 N          15.6675   40.5777    8.9749 N.pl3   1  UNL1       -0.2833
     22 H          16.6113   40.8309    9.0945 H       1  UNL1        0.1550
     23 C          14.9181   35.7334    9.0526 C.3     1  UNL1        0.0521
     24 C          14.8590   37.0523    9.7347 C.ar    1  UNL1        0.0608
     25 C          15.2323   39.4019    9.6708 C.ar    1  UNL1        0.1328
     26 C          14.7608   39.5256   10.9807 C.ar    1  UNL1        0.0344
     27 C          14.3345   38.3877   11.6678 C.ar    1  UNL1        0.0041
     28 C          14.3823   37.1404   11.0439 C.ar    1  UNL1        0.0148
     29 N          15.2696   38.1730    9.0826 N.ar    1  UNL1       -0.2349
@<TRIPOS>BOND
     1    23    24    1
     2    25    29   ar
     3    25    21    1
     4    26    27   ar
     5    28    24   ar
     6     2     6   ar
     7     3     7   ar
     8     4     1   ar
     9     5     3    1
    10     8     2    1
    11     8     9    1
    12     9    10    1
    13    10    11    1
    14    11    13    1
    15    12    13    1
    16    12     8    1
    17    14    13    1
    18    14    15    1
    19    16    18   ar
    20    17    19   ar
    21    21     1    1
    22    19    15   ar
    23    24    29   ar
    24    25    26   ar
    25    27    28   ar
    26     1     6   ar
    27     2     7   ar
    28     3     4   ar
    29    15    18   ar
    30    16    17   ar
    31    21    22    1
    32    19    20    1
@<TRIPOS>MOLECULE
MolPort-020-278-672 MCULE-2162936154 PubChem-110255544
 29 32 0 0 0
SMALL
GASTEIGER

@<TRIPOS>ATOM
      1 C           8.0887   42.1475   10.4912 C.ar    1  UNL1        0.1357
      2 C          10.1458   40.9856   10.2962 C.ar    1  UNL1        0.1411
      3 C           9.2186   41.3220   12.4444 C.ar    1  UNL1        0.0635
      4 C           8.1361   41.9938   11.8810 C.ar    1  UNL1        0.0492
      5 C           9.2971   41.1431   13.9174 C.3     1  UNL1        0.0522
      6 N           9.0957   41.6391    9.7326 N.ar    1  UNL1       -0.2159
      7 N          10.2015   40.8310   11.6473 N.ar    1  UNL1       -0.2349
      8 C          11.2294   40.4449    9.4237 C.3     1  UNL1        0.0746
      9 C          11.5289   38.9946    9.7762 C.3     1  UNL1        0.0104
     10 C          12.6460   38.4794    8.8840 C.3     1  UNL1        0.0178
     11 C          13.8840   39.3676    9.0396 C.3     1  UNL1        0.0725
     12 C          12.4999   41.2946    9.5530 C.3     1  UNL1        0.0800
     13 N          13.6074   40.7802    8.7353 N.3     1  UNL1       -0.2660
     14 C          13.2935   40.9407    7.3178 C.3     1  UNL1        0.1368
     15 C          13.9115   42.1920    6.7939 C.ar    1  UNL1        0.1335
     16 C          15.2881   43.7852    6.5143 C.ar    1  UNL1        0.1186
     17 C          14.1983   43.9838    5.6892 C.ar    1  UNL1        0.0943
     18 N          15.1030   42.6506    7.2138 N.ar    1  UNL1       -0.2281
     19 N          13.3271   42.9743    5.8691 N.ar    1  UNL1       -0.3385
     20 H          12.4590   42.8391    5.4247 H       1  UNL1        0.1672
     21 N           7.0062   42.8275    9.8396 N.pl3   1  UNL1       -0.2833
     22 H           7.2431   43.6350    9.3287 H       1  UNL1        0.1550
     23 C           3.4311   39.7763   11.2339 C.3     1  UNL1        0.0521
     24 C           3.8647   41.0000   10.5109 C.ar    1  UNL1        0.0608
     25 C           5.6187   42.4653    9.8474 C.ar    1  UNL1        0.1328
     26 C           4.7031   43.2764    9.1713 C.ar    1  UNL1        0.0344
     27 C           3.3500   42.9335    9.1722 C.ar    1  UNL1        0.0041
     28 C           2.9236   41.7880    9.8456 C.ar    1  UNL1        0.0148
     29 N           5.1784   41.3515   10.4980 N.ar    1  UNL1       -0.2349
@<TRIPOS>BOND
     1    23    24    1
     2    25    29   ar
     3    25    21    1
     4    26    27   ar
     5    28    24   ar
     6     2     6   ar
     7     3     7   ar
     8     4     1   ar
     9     5     3    1
    10     8     2    1
    11     8     9    1
    12     9    10    1
    13    10    11    1
    14    11    13    1
    15    12    13    1
    16    12     8    1
    17    14    13    1
    18    14    15    1
    19    16    18   ar
    20    17    19   ar
    21    21     1    1
    22    19    15   ar
    23    24    29   ar
    24    25    26   ar
    25    27    28   ar
    26     1     6   ar
    27     2     7   ar
    28     3     4   ar
    29    15    18   ar
    30    16    17   ar
    31    21    22    1
    32    19    20    1
@<TRIPOS>MOLECULE
MolPort-020-278-672 MCULE-2162936154 PubChem-110255544
 29 32 0 0 0
SMALL
GASTEIGER

@<TRIPOS>ATOM
      1 C          12.5539   41.4362    7.6370 C.ar    1  UNL1        0.1357
      2 C          10.3973   41.2224    8.5978 C.ar    1  UNL1        0.1411
      3 C          12.2769   40.4779    9.8229 C.ar    1  UNL1        0.0635
      4 C          13.1183   40.8623    8.7813 C.ar    1  UNL1        0.0492
      5 C          12.8467   39.8655   11.0509 C.3     1  UNL1        0.0522
      6 N          11.2061   41.6021    7.5736 N.ar    1  UNL1       -0.2159
      7 N          10.9364   40.6629    9.7154 N.ar    1  UNL1       -0.2349
      8 C           8.9227   41.4229    8.4836 C.3     1  UNL1        0.0746
      9 C           8.5808   42.1764    7.2058 C.3     1  UNL1        0.0104
     10 C           7.0769   42.3796    7.1276 C.3     1  UNL1        0.0178
     11 C           6.5899   43.1262    8.3731 C.3     1  UNL1        0.0725
     12 C           8.3855   42.1801    9.7047 C.3     1  UNL1        0.0800
     13 N           6.9398   42.4305    9.6213 N.3     1  UNL1       -0.2660
     14 C           6.2115   41.1681    9.7186 C.3     1  UNL1        0.1368
     15 C           4.7516   41.4284    9.8709 C.ar    1  UNL1        0.1335
     16 C           2.9060   42.0888   10.6889 C.ar    1  UNL1        0.1186
     17 C           2.6621   41.4517    9.4878 C.ar    1  UNL1        0.0943
     18 N           4.2299   42.0712   10.9296 N.ar    1  UNL1       -0.2281
     19 N           3.8323   41.0330    8.9723 N.ar    1  UNL1       -0.3385
     20 H           3.9816   40.5474    8.1290 H       1  UNL1        0.1672
     21 N          13.3565   41.8565    6.5244 N.pl3   1  UNL1       -0.2833
     22 H          13.1638   41.4256    5.6604 H       1  UNL1        0.1550
     23 C          17.7571   43.3410    8.0946 C.3     1  UNL1        0.0521
     24 C          16.5408   43.5763    7.2740 C.ar    1  UNL1        0.0608
     25 C          14.4071   42.8325    6.5270 C.ar    1  UNL1        0.1328
     26 C          14.2608   43.9873    5.7534 C.ar    1  UNL1        0.0344
     27 C          15.2772   44.9441    5.7483 C.ar    1  UNL1        0.0041
     28 C          16.4269   44.7410    6.5127 C.ar    1  UNL1        0.0148
     29 N          15.5392   42.6563    7.2653 N.ar    1  UNL1       -0.2349
@<TRIPOS>BOND
     1    23    24    1
     2    25    29   ar
     3    25    21    1
     4    26    27   ar
     5    28    24   ar
     6     2     6   ar
     7     3     7   ar
     8     4     1   ar
     9     5     3    1
    10     8     2    1
    11     8     9    1
    12     9    10    1
    13    10    11    1
    14    11    13    1
    15    12    13    1
    16    12     8    1
    17    14    13    1
    18    14    15    1
    19    16    18   ar
    20    17    19   ar
    21    21     1    1
    22    19    15   ar
    23    24    29   ar
    24    25    26   ar
    25    27    28   ar
    26     1     6   ar
    27     2     7   ar
    28     3     4   ar
    29    15    18   ar
    30    16    17   ar
    31    21    22    1
    32    19    20    1
