@<TRIPOS>MOLECULE
Molport-020-279-144 MCULE-4800752544 PubChem-110255898
 28 30 0 0 0
SMALL
GASTEIGER

@<TRIPOS>ATOM
      1 C          13.3988   41.1887    8.7062 C.ar    1  UNL1        0.1357
      2 C          11.4895   41.2702   10.1091 C.ar    1  UNL1        0.1414
      3 C          13.2821   39.8449   10.6944 C.ar    1  UNL1        0.0635
      4 C          13.9853   40.2507    9.5625 C.ar    1  UNL1        0.0492
      5 C          13.8785   38.8493   11.6222 C.3     1  UNL1        0.0522
      6 N          12.1646   41.6762    9.0015 N.ar    1  UNL1       -0.2159
      7 N          12.0512   40.3580   10.9485 N.ar    1  UNL1       -0.2348
      8 C          10.1350   41.8296   10.3912 C.3     1  UNL1        0.0785
      9 C           9.6233   41.3471   11.7501 C.3     1  UNL1        0.0110
     10 C           8.2388   41.9261   12.0326 C.3     1  UNL1        0.0220
     11 C           7.2692   41.5201   10.9271 C.3     1  UNL1        0.0935
     12 C           9.1552   41.4501    9.2810 C.3     1  UNL1        0.1009
     13 C           7.0770   42.7578    8.7353 C.2     1  UNL1        0.2418
     14 N           7.8164   41.9155    9.6316 N.am    1  UNL1       -0.2780
     15 O           7.5720   43.0899    7.6250 O.2     1  UNL1       -0.2734
     16 C           5.7027   43.2272    9.0806 C.3     1  UNL1        0.1552
     17 C           4.3181   44.6716    7.8882 C.3     1  UNL1        0.0862
     18 N           5.5406   44.6094    8.6671 N.3     1  UNL1       -0.2886
     19 H           6.3351   44.9014    8.0979 H       1  UNL1        0.1237
     20 N          14.0635   41.6573    7.5241 N.pl3   1  UNL1       -0.2835
     21 H          13.6492   41.4110    6.6657 H       1  UNL1        0.1550
     22 C          14.1275   43.9766    5.7914 C.3     1  UNL1        0.0340
     23 C          15.3057   43.5709    6.6088 C.ar    1  UNL1        0.0099
     24 C          15.2633   42.4441    7.4468 C.ar    1  UNL1        0.1291
     25 C          17.5134   42.8415    8.1210 C.ar    1  UNL1        0.1003
     26 C          17.5885   43.9663    7.2994 C.ar    1  UNL1        0.0204
     27 C          16.4760   44.3293    6.5409 C.ar    1  UNL1        0.0001
     28 N          16.3663   42.1132    8.1762 N.ar    1  UNL1       -0.2294
@<TRIPOS>BOND
     1    22    23    1
     2    24    28   ar
     3    24    20    1
     4    25    26   ar
     5    27    23   ar
     6     2     6   ar
     7     3     7   ar
     8     4     1   ar
     9     5     3    1
    10     8     2    1
    11     8     9    1
    12     9    10    1
    13    10    11    1
    14    11    14    1
    15    12    14    1
    16    12     8    1
    17    16    13    1
    18    16    18    1
    19    17    18    1
    20    20     1    1
    21    14    13   am
    22    23    24   ar
    23    25    28   ar
    24    26    27   ar
    25     1     6   ar
    26     2     7   ar
    27     3     4   ar
    28    13    15    2
    29    20    21    1
    30    18    19    1
@<TRIPOS>MOLECULE
Molport-020-279-144 MCULE-4800752544 PubChem-110255898
 28 30 0 0 0
SMALL
GASTEIGER

@<TRIPOS>ATOM
      1 C          14.9642   40.6787    9.1311 C.ar    1  UNL1        0.1357
      2 C          12.7174   40.0798    9.5932 C.ar    1  UNL1        0.1414
      3 C          14.4573   39.0036   10.7772 C.ar    1  UNL1        0.0635
      4 C          15.4045   39.7536   10.0839 C.ar    1  UNL1        0.0492
      5 C          14.8943   38.0125   11.7944 C.3     1  UNL1        0.0522
      6 N          13.6303   40.8195    8.9099 N.ar    1  UNL1       -0.2159
      7 N          13.1353   39.1771   10.5221 N.ar    1  UNL1       -0.2348
      8 C          11.2631   40.2653    9.3143 C.3     1  UNL1        0.0785
      9 C          11.0248   40.5011    7.8215 C.3     1  UNL1        0.0110
     10 C           9.5347   40.6867    7.5441 C.3     1  UNL1        0.0220
     11 C           8.9958   41.8590    8.3580 C.3     1  UNL1        0.0935
     12 C          10.7016   41.4234   10.1390 C.3     1  UNL1        0.1009
     13 C           8.2772   41.6519   10.7691 C.2     1  UNL1        0.2418
     14 N           9.3077   41.6540    9.7704 N.am    1  UNL1       -0.2780
     15 O           8.5701   41.4679   11.9809 O.2     1  UNL1       -0.2734
     16 C           6.8516   41.8998   10.4022 C.3     1  UNL1        0.1552
     17 C           4.9539   40.9230   11.3348 C.3     1  UNL1        0.0862
     18 N           6.0268   41.8640   11.5964 N.3     1  UNL1       -0.2886
     19 H           5.6436   42.7899   11.7867 H       1  UNL1        0.1237
     20 N          15.8798   41.4896    8.3809 N.pl3   1  UNL1       -0.2835
     21 H          16.8371   41.3094    8.5230 H       1  UNL1        0.1550
     22 C          17.5903   43.8211    8.2278 C.3     1  UNL1        0.0340
     23 C          16.3852   43.6699    7.3643 C.ar    1  UNL1        0.0099
     24 C          15.5626   42.5339    7.4463 C.ar    1  UNL1        0.1291
     25 C          14.1500   43.4144    5.7421 C.ar    1  UNL1        0.1003
     26 C          14.9460   44.5549    5.6351 C.ar    1  UNL1        0.0204
     27 C          16.0689   44.6791    6.4527 C.ar    1  UNL1        0.0001
     28 N          14.4714   42.4403    6.6349 N.ar    1  UNL1       -0.2294
@<TRIPOS>BOND
     1    22    23    1
     2    24    28   ar
     3    24    20    1
     4    25    26   ar
     5    27    23   ar
     6     2     6   ar
     7     3     7   ar
     8     4     1   ar
     9     5     3    1
    10     8     2    1
    11     8     9    1
    12     9    10    1
    13    10    11    1
    14    11    14    1
    15    12    14    1
    16    12     8    1
    17    16    13    1
    18    16    18    1
    19    17    18    1
    20    20     1    1
    21    14    13   am
    22    23    24   ar
    23    25    28   ar
    24    26    27   ar
    25     1     6   ar
    26     2     7   ar
    27     3     4   ar
    28    13    15    2
    29    20    21    1
    30    18    19    1
@<TRIPOS>MOLECULE
Molport-020-279-144 MCULE-4800752544 PubChem-110255898
 28 30 0 0 0
SMALL
GASTEIGER

@<TRIPOS>ATOM
      1 C          14.6745   40.7610    8.7816 C.ar    1  UNL1        0.1357
      2 C          12.4116   40.1211    8.4814 C.ar    1  UNL1        0.1414
      3 C          13.6478   39.1643   10.2544 C.ar    1  UNL1        0.0635
      4 C          14.7687   39.9033    9.8828 C.ar    1  UNL1        0.0492
      5 C          13.7174   38.2440   11.4189 C.3     1  UNL1        0.0522
      6 N          13.4969   40.8493    8.1082 N.ar    1  UNL1       -0.2159
      7 N          12.4928   39.2837    9.5512 N.ar    1  UNL1       -0.2348
      8 C          11.1404   40.2473    7.7098 C.3     1  UNL1        0.0785
      9 C          11.4293   40.5439    6.2369 C.3     1  UNL1        0.0110
     10 C          10.1240   40.6684    5.4540 C.3     1  UNL1        0.0220
     11 C           9.2588   41.7708    6.0565 C.3     1  UNL1        0.0935
     12 C          10.2511   41.3340    8.3138 C.3     1  UNL1        0.1009
     13 C           7.7509   41.4099    8.0487 C.2     1  UNL1        0.2418
     14 N           9.0651   41.5125    7.4812 N.am    1  UNL1       -0.2780
     15 O           7.6088   41.1814    9.2798 O.2     1  UNL1       -0.2734
     16 C           6.5336   41.6041    7.2068 C.3     1  UNL1        0.1552
     17 C           6.2790   39.5201    6.1981 C.3     1  UNL1        0.0862
     18 N           6.6888   40.8900    5.9522 N.3     1  UNL1       -0.2886
     19 H           7.6629   40.9168    5.6508 H       1  UNL1        0.1237
     20 N          15.7846   41.5567    8.3422 N.pl3   1  UNL1       -0.2835
     21 H          16.6680   41.3031    8.6952 H       1  UNL1        0.1550
     22 C          17.9100   43.5194    8.4684 C.3     1  UNL1        0.0340
     23 C          16.7835   43.6390    7.5001 C.ar    1  UNL1        0.0099
     24 C          15.7578   42.6803    7.4470 C.ar    1  UNL1        0.1291
     25 C          14.7005   43.8861    5.6854 C.ar    1  UNL1        0.1003
     26 C          15.7033   44.8554    5.7117 C.ar    1  UNL1        0.0204
     27 C          16.7487   44.7270    6.6259 C.ar    1  UNL1        0.0001
     28 N          14.7486   42.8323    6.5434 N.ar    1  UNL1       -0.2294
@<TRIPOS>BOND
     1    22    23    1
     2    24    28   ar
     3    24    20    1
     4    25    26   ar
     5    27    23   ar
     6     2     6   ar
     7     3     7   ar
     8     4     1   ar
     9     5     3    1
    10     8     2    1
    11     8     9    1
    12     9    10    1
    13    10    11    1
    14    11    14    1
    15    12    14    1
    16    12     8    1
    17    16    13    1
    18    16    18    1
    19    17    18    1
    20    20     1    1
    21    14    13   am
    22    23    24   ar
    23    25    28   ar
    24    26    27   ar
    25     1     6   ar
    26     2     7   ar
    27     3     4   ar
    28    13    15    2
    29    20    21    1
    30    18    19    1
@<TRIPOS>MOLECULE
Molport-020-279-144 MCULE-4800752544 PubChem-110255898
 28 30 0 0 0
SMALL
GASTEIGER

@<TRIPOS>ATOM
      1 C          13.2071   40.9862    8.5897 C.ar    1  UNL1        0.1357
      2 C          11.3734   41.2332   10.0718 C.ar    1  UNL1        0.1414
      3 C          13.2222   39.9228   10.7441 C.ar    1  UNL1        0.0635
      4 C          13.8565   40.1802    9.5309 C.ar    1  UNL1        0.0492
      5 C          13.8864   39.0695   11.7633 C.3     1  UNL1        0.0522
      6 N          11.9809   41.4938    8.8842 N.ar    1  UNL1       -0.2159
      7 N          11.9966   40.4502   10.9942 N.ar    1  UNL1       -0.2348
      8 C          10.0249   41.8088   10.3502 C.3     1  UNL1        0.0785
      9 C           9.5327   41.3865   11.7360 C.3     1  UNL1        0.0110
     10 C           8.1542   41.9818   12.0144 C.3     1  UNL1        0.0220
     11 C           7.1668   41.5323   10.9420 C.3     1  UNL1        0.0935
     12 C           9.0273   41.3856    9.2722 C.3     1  UNL1        0.1009
     13 C           6.9447   42.6759    8.7025 C.2     1  UNL1        0.2418
     14 N           7.6953   41.8702    9.6227 N.am    1  UNL1       -0.2780
     15 O           7.4236   42.9586    7.5717 O.2     1  UNL1       -0.2734
     16 C           5.5771   43.1643    9.0481 C.3     1  UNL1        0.1552
     17 C           4.2713   44.7155    7.9017 C.3     1  UNL1        0.0862
     18 N           5.4635   44.5732    8.7163 N.3     1  UNL1       -0.2886
     19 H           6.2846   44.8785    8.1938 H       1  UNL1        0.1237
     20 N          13.7991   41.2986    7.3206 N.pl3   1  UNL1       -0.2835
     21 H          13.7830   40.5824    6.6453 H       1  UNL1        0.1550
     22 C          16.4426   41.9523    8.3057 C.3     1  UNL1        0.0340
     23 C          15.6946   42.8622    7.3926 C.ar    1  UNL1        0.0099
     24 C          14.4127   42.5346    6.9201 C.ar    1  UNL1        0.1291
     25 C          14.3272   44.5740    5.6918 C.ar    1  UNL1        0.1003
     26 C          15.5987   44.9291    6.1424 C.ar    1  UNL1        0.0204
     27 C          16.2825   44.0653    6.9974 C.ar    1  UNL1        0.0001
     28 N          13.7681   43.3987    6.0859 N.ar    1  UNL1       -0.2294
@<TRIPOS>BOND
     1    22    23    1
     2    24    28   ar
     3    24    20    1
     4    25    26   ar
     5    27    23   ar
     6     2     6   ar
     7     3     7   ar
     8     4     1   ar
     9     5     3    1
    10     8     2    1
    11     8     9    1
    12     9    10    1
    13    10    11    1
    14    11    14    1
    15    12    14    1
    16    12     8    1
    17    16    13    1
    18    16    18    1
    19    17    18    1
    20    20     1    1
    21    14    13   am
    22    23    24   ar
    23    25    28   ar
    24    26    27   ar
    25     1     6   ar
    26     2     7   ar
    27     3     4   ar
    28    13    15    2
    29    20    21    1
    30    18    19    1
@<TRIPOS>MOLECULE
Molport-020-279-144 MCULE-4800752544 PubChem-110255898
 28 30 0 0 0
SMALL
GASTEIGER

@<TRIPOS>ATOM
      1 C          12.8526   42.3489    6.4740 C.ar    1  UNL1        0.1357
      2 C          14.4217   41.3093    7.9153 C.ar    1  UNL1        0.1414
      3 C          15.0158   43.3285    6.8395 C.ar    1  UNL1        0.0635
      4 C          13.7696   43.3741    6.2187 C.ar    1  UNL1        0.0492
      5 C          16.0112   44.4024    6.5872 C.3     1  UNL1        0.0522
      6 N          13.2015   41.3415    7.3174 N.ar    1  UNL1       -0.2159
      7 N          15.3210   42.3018    7.6735 N.ar    1  UNL1       -0.2348
      8 C          14.7627   40.1813    8.8310 C.3     1  UNL1        0.0785
      9 C          13.7299   40.0656    9.9539 C.3     1  UNL1        0.0110
     10 C          14.0841   38.9076   10.8843 C.3     1  UNL1        0.0220
     11 C          15.4786   39.1157   11.4667 C.3     1  UNL1        0.0935
     12 C          16.1669   40.3629    9.4072 C.3     1  UNL1        0.1009
     13 C          17.5941   38.4708   10.2495 C.2     1  UNL1        0.2418
     14 N          16.4355   39.3076   10.3797 N.am    1  UNL1       -0.2780
     15 O          18.4029   38.6522    9.3003 O.2     1  UNL1       -0.2734
     16 C          17.8827   37.3982   11.2468 C.3     1  UNL1        0.1552
     17 C          18.9918   35.5700   10.3235 C.3     1  UNL1        0.0862
     18 N          19.1988   36.8392   10.9954 N.3     1  UNL1       -0.2886
     19 H          19.6931   36.6942   11.8758 H       1  UNL1        0.1237
     20 N          11.5491   42.3299    5.8748 N.pl3   1  UNL1       -0.2835
     21 H          11.4075   42.9486    5.1221 H       1  UNL1        0.1550
     22 C          10.8153   40.0858    4.1982 C.3     1  UNL1        0.0340
     23 C          10.0608   40.4228    5.4383 C.ar    1  UNL1        0.0099
     24 C          10.4260   41.5136    6.2449 C.ar    1  UNL1        0.1291
     25 C           8.6393   41.0246    7.7428 C.ar    1  UNL1        0.1003
     26 C           8.2505   39.9341    6.9645 C.ar    1  UNL1        0.0204
     27 C           8.9682   39.6353    5.8066 C.ar    1  UNL1        0.0001
     28 N           9.7056   41.7819    7.3706 N.ar    1  UNL1       -0.2294
@<TRIPOS>BOND
     1    22    23    1
     2    24    28   ar
     3    24    20    1
     4    25    26   ar
     5    27    23   ar
     6     2     6   ar
     7     3     7   ar
     8     4     1   ar
     9     5     3    1
    10     8     2    1
    11     8     9    1
    12     9    10    1
    13    10    11    1
    14    11    14    1
    15    12    14    1
    16    12     8    1
    17    16    13    1
    18    16    18    1
    19    17    18    1
    20    20     1    1
    21    14    13   am
    22    23    24   ar
    23    25    28   ar
    24    26    27   ar
    25     1     6   ar
    26     2     7   ar
    27     3     4   ar
    28    13    15    2
    29    20    21    1
    30    18    19    1
@<TRIPOS>MOLECULE
Molport-020-279-144 MCULE-4800752544 PubChem-110255898
 28 30 0 0 0
SMALL
GASTEIGER

@<TRIPOS>ATOM
      1 C          13.2409   41.0543    8.3598 C.ar    1  UNL1        0.1357
      2 C          11.1337   40.4290    9.2479 C.ar    1  UNL1        0.1414
      3 C          13.0920   39.8969   10.4600 C.ar    1  UNL1        0.0635
      4 C          13.8748   40.4888    9.4713 C.ar    1  UNL1        0.0492
      5 C          13.7365   39.2870   11.6518 C.3     1  UNL1        0.0522
      6 N          11.8847   41.0111    8.2760 N.ar    1  UNL1       -0.2159
      7 N          11.7406   39.8759   10.3332 N.ar    1  UNL1       -0.2348
      8 C           9.6478   40.4012    9.1117 C.3     1  UNL1        0.0785
      9 C           9.2391   40.4463    7.6380 C.3     1  UNL1        0.0110
     10 C           7.7180   40.4144    7.5071 C.3     1  UNL1        0.0220
     11 C           7.1058   41.5897    8.2626 C.3     1  UNL1        0.0935
     12 C           9.0161   41.5609    9.8816 C.3     1  UNL1        0.1009
     13 C           6.6540   41.5508   10.7460 C.2     1  UNL1        0.2418
     14 N           7.5753   41.5757    9.6459 N.am    1  UNL1       -0.2780
     15 O           7.0829   41.5339   11.9308 O.2     1  UNL1       -0.2734
     16 C           5.1797   41.5789   10.5138 C.3     1  UNL1        0.1552
     17 C           3.6122   42.8229    9.3218 C.3     1  UNL1        0.0862
     18 N           4.7604   42.9334   10.2020 N.3     1  UNL1       -0.2886
     19 H           5.5147   43.4360    9.7342 H       1  UNL1        0.1237
     20 N          13.9799   41.6849    7.3039 N.pl3   1  UNL1       -0.2835
     21 H          13.6123   41.5848    6.3961 H       1  UNL1        0.1550
     22 C          14.2551   44.1448    5.8009 C.3     1  UNL1        0.0340
     23 C          15.3384   43.6399    6.6912 C.ar    1  UNL1        0.0099
     24 C          15.1938   42.4454    7.4165 C.ar    1  UNL1        0.1291
     25 C          17.3706   42.7260    8.3429 C.ar    1  UNL1        0.1003
     26 C          17.5461   43.9163    7.6370 C.ar    1  UNL1        0.0204
     27 C          16.5215   44.3719    6.8077 C.ar    1  UNL1        0.0001
     28 N          16.2123   42.0245    8.2188 N.ar    1  UNL1       -0.2294
@<TRIPOS>BOND
     1    22    23    1
     2    24    28   ar
     3    24    20    1
     4    25    26   ar
     5    27    23   ar
     6     2     6   ar
     7     3     7   ar
     8     4     1   ar
     9     5     3    1
    10     8     2    1
    11     8     9    1
    12     9    10    1
    13    10    11    1
    14    11    14    1
    15    12    14    1
    16    12     8    1
    17    16    13    1
    18    16    18    1
    19    17    18    1
    20    20     1    1
    21    14    13   am
    22    23    24   ar
    23    25    28   ar
    24    26    27   ar
    25     1     6   ar
    26     2     7   ar
    27     3     4   ar
    28    13    15    2
    29    20    21    1
    30    18    19    1
@<TRIPOS>MOLECULE
Molport-020-279-144 MCULE-4800752544 PubChem-110255898
 28 30 0 0 0
SMALL
GASTEIGER

@<TRIPOS>ATOM
      1 C          11.2128   41.5529    6.7745 C.ar    1  UNL1        0.1357
      2 C           8.8645   41.6503    6.4647 C.ar    1  UNL1        0.1414
      3 C          10.1678   40.3784    4.9577 C.ar    1  UNL1        0.0635
      4 C          11.3243   40.7244    5.6528 C.ar    1  UNL1        0.0492
      5 C          10.2544   39.5007    3.7618 C.3     1  UNL1        0.0522
      6 N           9.9844   41.9950    7.1534 N.ar    1  UNL1       -0.2159
      7 N           8.9621   40.8448    5.3720 N.ar    1  UNL1       -0.2348
      8 C           7.5371   42.1626    6.9149 C.3     1  UNL1        0.0785
      9 C           7.2612   43.5450    6.3202 C.3     1  UNL1        0.0110
     10 C           5.9004   44.0607    6.7829 C.3     1  UNL1        0.0220
     11 C           5.8574   44.1215    8.3066 C.3     1  UNL1        0.0935
     12 C           7.4691   42.2095    8.4413 C.3     1  UNL1        0.1009
     13 C           5.3254   42.1230    9.7542 C.2     1  UNL1        0.2418
     14 N           6.2056   42.8131    8.8551 N.am    1  UNL1       -0.2780
     15 O           5.6451   40.9927   10.2105 O.2     1  UNL1       -0.2734
     16 C           4.0381   42.7388   10.1923 C.3     1  UNL1        0.1552
     17 C           2.5633   41.1852    9.2775 C.3     1  UNL1        0.0862
     18 N           3.0325   42.5533    9.1616 N.3     1  UNL1       -0.2886
     19 H           3.4413   42.7077    8.2399 H       1  UNL1        0.1237
     20 N          12.3582   41.9484    7.5429 N.pl3   1  UNL1       -0.2835
     21 H          12.3427   41.7132    8.4988 H       1  UNL1        0.1550
     22 C          14.9687   41.1299    8.4921 C.3     1  UNL1        0.0340
     23 C          14.7966   42.2592    7.5350 C.ar    1  UNL1        0.0099
     24 C          13.5252   42.6474    7.0804 C.ar    1  UNL1        0.1291
     25 C          14.5071   44.3634    5.7513 C.ar    1  UNL1        0.1003
     26 C          15.7839   44.0031    6.1825 C.ar    1  UNL1        0.0204
     27 C          15.9246   42.9444    7.0794 C.ar    1  UNL1        0.0001
     28 N          13.4184   43.6861    6.2042 N.ar    1  UNL1       -0.2294
@<TRIPOS>BOND
     1    22    23    1
     2    24    28   ar
     3    24    20    1
     4    25    26   ar
     5    27    23   ar
     6     2     6   ar
     7     3     7   ar
     8     4     1   ar
     9     5     3    1
    10     8     2    1
    11     8     9    1
    12     9    10    1
    13    10    11    1
    14    11    14    1
    15    12    14    1
    16    12     8    1
    17    16    13    1
    18    16    18    1
    19    17    18    1
    20    20     1    1
    21    14    13   am
    22    23    24   ar
    23    25    28   ar
    24    26    27   ar
    25     1     6   ar
    26     2     7   ar
    27     3     4   ar
    28    13    15    2
    29    20    21    1
    30    18    19    1
@<TRIPOS>MOLECULE
Molport-020-279-144 MCULE-4800752544 PubChem-110255898
 28 30 0 0 0
SMALL
GASTEIGER

@<TRIPOS>ATOM
      1 C          14.7991   41.6036    7.9451 C.ar    1  UNL1        0.1357
      2 C          12.5774   41.9114    7.1772 C.ar    1  UNL1        0.1414
      3 C          14.3031   43.2382    6.2556 C.ar    1  UNL1        0.0635
      4 C          15.2379   42.6027    7.0697 C.ar    1  UNL1        0.0492
      5 C          14.7386   44.3040    5.3163 C.3     1  UNL1        0.0522
      6 N          13.4786   41.2819    7.9765 N.ar    1  UNL1       -0.2159
      7 N          12.9940   42.8848    6.3220 N.ar    1  UNL1       -0.2348
      8 C          11.1369   41.5280    7.2485 C.3     1  UNL1        0.0785
      9 C          10.4778   41.6450    5.8727 C.3     1  UNL1        0.0110
     10 C           9.0053   41.2482    5.9534 C.3     1  UNL1        0.0220
     11 C           8.2824   42.1332    6.9640 C.3     1  UNL1        0.0935
     12 C          10.4014   42.3914    8.2733 C.3     1  UNL1        0.1009
     13 C           8.2925   41.6854    9.4484 C.2     1  UNL1        0.2418
     14 N           8.9769   42.0721    8.2477 N.am    1  UNL1       -0.2780
     15 O           8.9141   41.6350   10.5434 O.2     1  UNL1       -0.2734
     16 C           6.8335   41.3700    9.4330 C.3     1  UNL1        0.1552
     17 C           4.6962   42.2286    9.7791 C.3     1  UNL1        0.0862
     18 N           6.0976   42.4321   10.0950 N.3     1  UNL1       -0.2886
     19 H           6.4069   43.3412    9.7512 H       1  UNL1        0.1237
     20 N          15.7032   40.9021    8.8107 N.pl3   1  UNL1       -0.2835
     21 H          16.6618   40.9990    8.6084 H       1  UNL1        0.1550
     22 C          17.8058   39.4305   10.1519 C.3     1  UNL1        0.0340
     23 C          16.3852   39.3559   10.5959 C.ar    1  UNL1        0.0099
     24 C          15.3731   40.0749    9.9382 C.ar    1  UNL1        0.1291
     25 C          13.7497   39.1999   11.4463 C.ar    1  UNL1        0.1003
     26 C          14.7306   38.4736   12.1219 C.ar    1  UNL1        0.0204
     27 C          16.0544   38.5551   11.6907 C.ar    1  UNL1        0.0001
     28 N          14.0880   39.9754   10.3816 N.ar    1  UNL1       -0.2294
@<TRIPOS>BOND
     1    22    23    1
     2    24    28   ar
     3    24    20    1
     4    25    26   ar
     5    27    23   ar
     6     2     6   ar
     7     3     7   ar
     8     4     1   ar
     9     5     3    1
    10     8     2    1
    11     8     9    1
    12     9    10    1
    13    10    11    1
    14    11    14    1
    15    12    14    1
    16    12     8    1
    17    16    13    1
    18    16    18    1
    19    17    18    1
    20    20     1    1
    21    14    13   am
    22    23    24   ar
    23    25    28   ar
    24    26    27   ar
    25     1     6   ar
    26     2     7   ar
    27     3     4   ar
    28    13    15    2
    29    20    21    1
    30    18    19    1
@<TRIPOS>MOLECULE
Molport-020-279-144 MCULE-4800752544 PubChem-110255898
 28 30 0 0 0
SMALL
GASTEIGER

@<TRIPOS>ATOM
      1 C          13.1903   40.9186    8.3776 C.ar    1  UNL1        0.1357
      2 C          10.9131   40.9147    9.0367 C.ar    1  UNL1        0.1414
      3 C          12.5436   40.1013   10.5424 C.ar    1  UNL1        0.0635
      4 C          13.5465   40.3666    9.6128 C.ar    1  UNL1        0.0492
      5 C          12.8908   39.5142   11.8625 C.3     1  UNL1        0.0522
      6 N          11.8813   41.1800    8.1204 N.ar    1  UNL1       -0.2159
      7 N          11.2491   40.3776   10.2413 N.ar    1  UNL1       -0.2348
      8 C           9.4883   41.2144    8.7092 C.3     1  UNL1        0.0785
      9 C           8.9450   40.2100    7.6909 C.3     1  UNL1        0.0110
     10 C           7.4862   40.5215    7.3636 C.3     1  UNL1        0.0220
     11 C           7.3664   41.9424    6.8217 C.3     1  UNL1        0.0935
     12 C           9.3469   42.6432    8.1846 C.3     1  UNL1        0.1009
     13 C           7.2190   43.9790    8.3061 C.2     1  UNL1        0.2418
     14 N           7.9662   42.8768    7.7710 N.am    1  UNL1       -0.2780
     15 O           7.7564   44.7689    9.1278 O.2     1  UNL1       -0.2734
     16 C           5.8114   44.2321    7.8785 C.3     1  UNL1        0.1552
     17 C           4.0999   43.1699    9.0479 C.3     1  UNL1        0.0862
     18 N           4.9578   44.3399    9.0480 N.3     1  UNL1       -0.2886
     19 H           4.3946   45.1887    8.9950 H       1  UNL1        0.1237
     20 N          14.1676   41.2229    7.3721 N.pl3   1  UNL1       -0.2835
     21 H          14.2016   40.6127    6.6003 H       1  UNL1        0.1550
     22 C          16.5932   41.0279    8.9417 C.3     1  UNL1        0.0340
     23 C          16.2819   42.2304    8.1183 C.ar    1  UNL1        0.0099
     24 C          15.1023   42.3141    7.3599 C.ar    1  UNL1        0.1291
     25 C          15.7303   44.4803    6.5929 C.ar    1  UNL1        0.1003
     26 C          16.9110   44.4291    7.3341 C.ar    1  UNL1        0.0204
     27 C          17.1842   43.2958    8.0996 C.ar    1  UNL1        0.0001
     28 N          14.8617   43.4344    6.6216 N.ar    1  UNL1       -0.2294
@<TRIPOS>BOND
     1    22    23    1
     2    24    28   ar
     3    24    20    1
     4    25    26   ar
     5    27    23   ar
     6     2     6   ar
     7     3     7   ar
     8     4     1   ar
     9     5     3    1
    10     8     2    1
    11     8     9    1
    12     9    10    1
    13    10    11    1
    14    11    14    1
    15    12    14    1
    16    12     8    1
    17    16    13    1
    18    16    18    1
    19    17    18    1
    20    20     1    1
    21    14    13   am
    22    23    24   ar
    23    25    28   ar
    24    26    27   ar
    25     1     6   ar
    26     2     7   ar
    27     3     4   ar
    28    13    15    2
    29    20    21    1
    30    18    19    1
@<TRIPOS>MOLECULE
Molport-020-279-144 MCULE-4800752544 PubChem-110255898
 28 30 0 0 0
SMALL
GASTEIGER

@<TRIPOS>ATOM
      1 C          12.7347   42.3543    6.3772 C.ar    1  UNL1        0.1357
      2 C          14.0807   41.3397    8.0442 C.ar    1  UNL1        0.1414
      3 C          14.9689   43.1356    6.7899 C.ar    1  UNL1        0.0635
      4 C          13.7775   43.2366    6.0751 C.ar    1  UNL1        0.0492
      5 C          16.0949   44.0580    6.4912 C.3     1  UNL1        0.0522
      6 N          12.9121   41.4275    7.3557 N.ar    1  UNL1       -0.2159
      7 N          15.1015   42.1933    7.7580 N.ar    1  UNL1       -0.2348
      8 C          14.2320   40.3037    9.1077 C.3     1  UNL1        0.0785
      9 C          15.7059   40.1146    9.4723 C.3     1  UNL1        0.0110
     10 C          15.8519   39.0557   10.5628 C.3     1  UNL1        0.0220
     11 C          15.2495   37.7360   10.0909 C.3     1  UNL1        0.0935
     12 C          13.6138   38.9796    8.6594 C.3     1  UNL1        0.1009
     13 C          12.7852   37.2098   10.2431 C.2     1  UNL1        0.2418
     14 N          13.8684   37.9557    9.6687 N.am    1  UNL1       -0.2780
     15 O          11.6013   37.4205    9.8664 O.2     1  UNL1       -0.2734
     16 C          13.0384   36.1524   11.2659 C.3     1  UNL1        0.1552
     17 C          13.4016   34.4828    9.6829 C.3     1  UNL1        0.0862
     18 N          12.5412   34.8768   10.7828 N.3     1  UNL1       -0.2886
     19 H          11.5790   34.9746   10.4586 H       1  UNL1        0.1237
     20 N          11.4776   42.4003    5.6870 N.pl3   1  UNL1       -0.2835
     21 H          11.1915   43.2850    5.3635 H       1  UNL1        0.1550
     22 C           9.1535   42.0090    7.3695 C.3     1  UNL1        0.0340
     23 C           9.4575   41.1065    6.2232 C.ar    1  UNL1        0.0099
     24 C          10.5876   41.3062    5.4129 C.ar    1  UNL1        0.1291
     25 C           9.9964   39.4120    4.0945 C.ar    1  UNL1        0.1003
     26 C           8.8654   39.1861    4.8792 C.ar    1  UNL1        0.0204
     27 C           8.5984   40.0407    5.9485 C.ar    1  UNL1        0.0001
     28 N          10.8234   40.4545    4.3750 N.ar    1  UNL1       -0.2294
@<TRIPOS>BOND
     1    22    23    1
     2    24    28   ar
     3    24    20    1
     4    25    26   ar
     5    27    23   ar
     6     2     6   ar
     7     3     7   ar
     8     4     1   ar
     9     5     3    1
    10     8     2    1
    11     8     9    1
    12     9    10    1
    13    10    11    1
    14    11    14    1
    15    12    14    1
    16    12     8    1
    17    16    13    1
    18    16    18    1
    19    17    18    1
    20    20     1    1
    21    14    13   am
    22    23    24   ar
    23    25    28   ar
    24    26    27   ar
    25     1     6   ar
    26     2     7   ar
    27     3     4   ar
    28    13    15    2
    29    20    21    1
    30    18    19    1
