@<TRIPOS>MOLECULE
MolPort-005-114-135 CSSS00159524509 MCULE-1382020917 PubChem-31105705
 30 32 0 0 0
SMALL
GASTEIGER

@<TRIPOS>ATOM
      1 C           8.2418   37.4312    2.6895 C.2     1  UNL1        0.3098
      2 C           5.8070   37.4913    2.0818 C.3     1  UNL1        0.0957
      3 C           5.1642   37.3319    0.7061 C.3     1  UNL1        0.0326
      4 C           5.0566   35.8497    0.2784 C.3     1  UNL1        0.0735
      5 C           6.4684   35.2215    0.3446 C.3     1  UNL1        0.0326
      6 C           7.1325   35.4014    1.7107 C.3     1  UNL1        0.0957
      7 O           9.3250   36.7917    2.7836 O.2     1  UNL1       -0.2522
      8 N           8.1557   38.7832    3.1593 N.am    1  UNL1       -0.2396
      9 N           7.0933   36.8058    2.1027 N.am    1  UNL1       -0.2639
     10 H           7.2905   39.2425    3.0612 H       1  UNL1        0.1592
     11 C          10.3140   40.6679    5.1501 C.ar    1  UNL1        0.1547
     12 C          11.1309   40.4306    4.0644 C.ar    1  UNL1        0.1253
     13 C           9.2273   39.5184    3.7596 C.ar    1  UNL1        0.2017
     14 N          10.4322   39.6961    3.1790 N.ar    1  UNL1       -0.2118
     15 N           9.1104   40.0970    4.9690 N.ar    1  UNL1       -0.3201
     16 H           8.3334   40.1012    5.5734 H       1  UNL1        0.1688
     17 C          10.6804   41.4319    6.3468 C.2     1  UNL1        0.3587
     18 O          11.8134   41.9817    6.4209 O.2     1  UNL1       -0.2432
     19 O           9.7671   41.5443    7.3968 O.3     1  UNL1       -0.4444
     20 C          10.5385   41.1864    9.6378 C.3     1  UNL1        0.0513
     21 C          10.0951   42.2058    8.6093 C.3     1  UNL1        0.2089
     22 C           4.0417   35.1273    1.1604 C.ar    1  UNL1       -0.0161
     23 C           3.9920   33.7215    1.1576 C.ar    1  UNL1       -0.0039
     24 C           3.0893   33.0374    1.9761 C.ar    1  UNL1       -0.0003
     25 C           2.2288   33.7490    2.8146 C.ar    1  UNL1       -0.0000
     26 C           2.2732   35.1446    2.8376 C.ar    1  UNL1       -0.0003
     27 C           3.1758   35.8288    2.0194 C.ar    1  UNL1       -0.0039
     28 C           4.5909   35.7563   -1.1636 C.2     1  UNL1        0.1541
     29 C           3.1353   35.6220   -1.4821 C.3     1  UNL1        0.0726
     30 O           5.3890   35.7933   -2.0885 O.2     1  UNL1       -0.2957
@<TRIPOS>BOND
     1    20    21    1
     2    21    19    1
     3    17    19    1
     4    17    11    1
     5    12    14   ar
     6    13     8    1
     7    13    15   ar
     8     1     9   am
     9     2     9    1
    10     2     3    1
    11     3     4    1
    12     4     5    1
    13     4    28    1
    14     4    22    1
    15     5     6    1
    16     6     9    1
    17    29    28    1
    18    23    24   ar
    19    25    26   ar
    20    27    22   ar
    21     8     1   am
    22    15    11   ar
    23    17    18    2
    24    11    12   ar
    25    13    14   ar
    26     1     7    2
    27    28    30    2
    28    22    23   ar
    29    24    25   ar
    30    26    27   ar
    31     8    10    1
    32    15    16    1
@<TRIPOS>MOLECULE
MolPort-005-114-135 CSSS00159524509 MCULE-1382020917 PubChem-31105705
 30 32 0 0 0
SMALL
GASTEIGER

@<TRIPOS>ATOM
      1 C          10.6448   42.7699    9.0100 C.2     1  UNL1        0.3098
      2 C           8.4184   42.0372    8.1113 C.3     1  UNL1        0.0957
      3 C           7.3378   41.2092    8.8025 C.3     1  UNL1        0.0326
      4 C           6.4754   42.0586    9.7650 C.3     1  UNL1        0.0735
      5 C           7.4177   42.7560   10.7739 C.3     1  UNL1        0.0326
      6 C           8.5215   43.5650   10.0907 C.3     1  UNL1        0.0957
      7 O          11.3163   43.4528    9.8309 O.2     1  UNL1       -0.2522
      8 N          11.3043   42.0226    7.9791 N.am    1  UNL1       -0.2396
      9 N           9.2156   42.7343    9.1131 N.am    1  UNL1       -0.2639
     10 H          10.7384   41.5020    7.3644 H       1  UNL1        0.1592
     11 C          14.7615   41.5661    8.0911 C.ar    1  UNL1        0.1547
     12 C          14.6441   42.2329    6.8895 C.ar    1  UNL1        0.1253
     13 C          12.7199   41.9732    7.7722 C.ar    1  UNL1        0.2017
     14 N          13.3382   42.4908    6.6903 N.ar    1  UNL1       -0.2118
     15 N          13.5540   41.3965    8.6570 N.ar    1  UNL1       -0.3201
     16 H          13.3336   40.9577    9.5103 H       1  UNL1        0.1688
     17 C          16.0145   41.0967    8.6912 C.2     1  UNL1        0.3587
     18 O          16.0073   40.1031    9.4685 O.2     1  UNL1       -0.2432
     19 O          17.2083   41.7567    8.3941 O.3     1  UNL1       -0.4444
     20 C          17.8846   43.9137    7.5967 C.3     1  UNL1        0.0513
     21 C          17.4440   43.0982    8.7944 C.3     1  UNL1        0.2089
     22 C           5.6238   43.0427    8.9675 C.ar    1  UNL1       -0.0161
     23 C           4.3205   43.3467    9.4008 C.ar    1  UNL1       -0.0039
     24 C           3.5316   44.2644    8.7020 C.ar    1  UNL1       -0.0003
     25 C           4.0375   44.8967    7.5643 C.ar    1  UNL1       -0.0000
     26 C           5.3333   44.6144    7.1273 C.ar    1  UNL1       -0.0003
     27 C           6.1224   43.6970    7.8260 C.ar    1  UNL1       -0.0039
     28 C           5.5483   41.1601   10.5638 C.2     1  UNL1        0.1541
     29 C           4.3354   40.5627    9.9234 C.3     1  UNL1        0.0726
     30 O           5.7739   40.9039   11.7374 O.2     1  UNL1       -0.2957
@<TRIPOS>BOND
     1    20    21    1
     2    21    19    1
     3    17    19    1
     4    17    11    1
     5    12    14   ar
     6    13     8    1
     7    13    15   ar
     8     1     9   am
     9     2     9    1
    10     2     3    1
    11     3     4    1
    12     4     5    1
    13     4    28    1
    14     4    22    1
    15     5     6    1
    16     6     9    1
    17    29    28    1
    18    23    24   ar
    19    25    26   ar
    20    27    22   ar
    21     8     1   am
    22    15    11   ar
    23    17    18    2
    24    11    12   ar
    25    13    14   ar
    26     1     7    2
    27    28    30    2
    28    22    23   ar
    29    24    25   ar
    30    26    27   ar
    31     8    10    1
    32    15    16    1
@<TRIPOS>MOLECULE
MolPort-005-114-135 CSSS00159524509 MCULE-1382020917 PubChem-31105705
 30 32 0 0 0
SMALL
GASTEIGER

@<TRIPOS>ATOM
      1 C           1.2416   33.1781    8.7035 C.2     1  UNL1        0.3098
      2 C           1.9574   34.2484    6.5486 C.3     1  UNL1        0.0957
      3 C           3.3040   34.1475    5.8361 C.3     1  UNL1        0.0326
      4 C           3.4427   32.8353    5.0296 C.3     1  UNL1        0.0735
      5 C           3.1940   31.6474    5.9885 C.3     1  UNL1        0.0326
      6 C           1.8598   31.7542    6.7289 C.3     1  UNL1        0.0957
      7 O           0.9780   32.1389    9.3682 O.2     1  UNL1       -0.2522
      8 N           1.0452   34.4761    9.2804 N.am    1  UNL1       -0.2396
      9 N           1.7476   33.0608    7.3676 N.am    1  UNL1       -0.2639
     10 H           1.2684   35.2573    8.7244 H       1  UNL1        0.1592
     11 C          -0.4701   35.6420   12.1989 C.ar    1  UNL1        0.1547
     12 C           0.1772   34.5277   12.6905 C.ar    1  UNL1        0.1253
     13 C           0.5506   34.7268   10.6001 C.ar    1  UNL1        0.2017
     14 N           0.8277   33.9466   11.6655 N.ar    1  UNL1       -0.2118
     15 N          -0.2419   35.7776   10.8811 N.ar    1  UNL1       -0.3201
     16 H          -0.5734   36.4753   10.2706 H       1  UNL1        0.1688
     17 C          -1.2974   36.5665   12.9807 C.2     1  UNL1        0.3587
     18 O          -2.4693   36.8383   12.6010 O.2     1  UNL1       -0.2432
     19 O          -0.7775   37.1385   14.1433 O.3     1  UNL1       -0.4444
     20 C          -0.8321   36.4154   16.4280 C.3     1  UNL1        0.0513
     21 C          -0.0827   36.3686   15.1128 C.3     1  UNL1        0.2089
     22 C           2.4842   32.8522    3.8418 C.ar    1  UNL1       -0.0161
     23 C           2.4364   33.9791    3.0012 C.ar    1  UNL1       -0.0039
     24 C           1.5860   34.0073    1.8926 C.ar    1  UNL1       -0.0003
     25 C           0.7771   32.9061    1.6045 C.ar    1  UNL1       -0.0000
     26 C           0.8208   31.7753    2.4227 C.ar    1  UNL1       -0.0003
     27 C           1.6712   31.7468    3.5310 C.ar    1  UNL1       -0.0039
     28 C           4.8590   32.6963    4.5008 C.2     1  UNL1        0.1541
     29 C           5.1207   31.9736    3.2172 C.3     1  UNL1        0.0726
     30 O           5.8084   33.1725    5.1057 O.2     1  UNL1       -0.2957
@<TRIPOS>BOND
     1    20    21    1
     2    21    19    1
     3    17    19    1
     4    17    11    1
     5    12    14   ar
     6    13     8    1
     7    13    15   ar
     8     1     9   am
     9     2     9    1
    10     2     3    1
    11     3     4    1
    12     4     5    1
    13     4    28    1
    14     4    22    1
    15     5     6    1
    16     6     9    1
    17    29    28    1
    18    23    24   ar
    19    25    26   ar
    20    27    22   ar
    21     8     1   am
    22    15    11   ar
    23    17    18    2
    24    11    12   ar
    25    13    14   ar
    26     1     7    2
    27    28    30    2
    28    22    23   ar
    29    24    25   ar
    30    26    27   ar
    31     8    10    1
    32    15    16    1
@<TRIPOS>MOLECULE
MolPort-005-114-135 CSSS00159524509 MCULE-1382020917 PubChem-31105705
 30 32 0 0 0
SMALL
GASTEIGER

@<TRIPOS>ATOM
      1 C           5.5307   39.6343    5.8110 C.2     1  UNL1        0.3098
      2 C           5.0149   41.4126    7.5060 C.3     1  UNL1        0.0957
      3 C           5.0360   41.3116    9.0293 C.3     1  UNL1        0.0326
      4 C           6.4676   41.4227    9.6036 C.3     1  UNL1        0.0735
      5 C           7.3462   40.3425    8.9300 C.3     1  UNL1        0.0326
      6 C           7.3088   40.4174    7.4027 C.3     1  UNL1        0.0957
      7 O           6.3601   38.8513    5.2725 O.2     1  UNL1       -0.2522
      8 N           4.1918   39.7301    5.3065 N.am    1  UNL1       -0.2396
      9 N           5.9262   40.4267    6.9381 N.am    1  UNL1       -0.2639
     10 H           3.5796   40.3522    5.7618 H       1  UNL1        0.1592
     11 C           3.5394   37.5871    2.6316 C.ar    1  UNL1        0.1547
     12 C           2.3751   38.3266    2.6391 C.ar    1  UNL1        0.1253
     13 C           3.6743   38.9934    4.1936 C.ar    1  UNL1        0.2017
     14 N           2.4662   39.2235    3.6385 N.ar    1  UNL1       -0.2118
     15 N           4.3665   37.9988    3.6080 N.ar    1  UNL1       -0.3201
     16 H           5.2603   37.6564    3.8384 H       1  UNL1        0.1688
     17 C           3.8569   36.4993    1.7010 C.2     1  UNL1        0.3587
     18 O           4.1888   36.7633    0.5129 O.2     1  UNL1       -0.2432
     19 O           3.7892   35.1762    2.1416 O.3     1  UNL1       -0.4444
     20 C           2.6817   33.0571    2.3103 C.3     1  UNL1        0.0513
     21 C           3.1391   34.1657    1.3854 C.3     1  UNL1        0.2089
     22 C           7.0012   42.8377    9.3974 C.ar    1  UNL1       -0.0161
     23 C           6.1747   43.8161    8.8156 C.ar    1  UNL1       -0.0039
     24 C           6.6321   45.1250    8.6407 C.ar    1  UNL1       -0.0003
     25 C           7.9196   45.4759    9.0519 C.ar    1  UNL1       -0.0000
     26 C           8.7488   44.5192    9.6413 C.ar    1  UNL1       -0.0003
     27 C           8.2916   43.2105    9.8165 C.ar    1  UNL1       -0.0039
     28 C           6.4556   41.1271   11.0927 C.2     1  UNL1        0.1541
     29 C           7.7085   41.2548   11.9003 C.3     1  UNL1        0.0726
     30 O           5.4285   40.7855   11.6604 O.2     1  UNL1       -0.2957
@<TRIPOS>BOND
     1    20    21    1
     2    21    19    1
     3    17    19    1
     4    17    11    1
     5    12    14   ar
     6    13     8    1
     7    13    15   ar
     8     1     9   am
     9     2     9    1
    10     2     3    1
    11     3     4    1
    12     4     5    1
    13     4    28    1
    14     4    22    1
    15     5     6    1
    16     6     9    1
    17    29    28    1
    18    23    24   ar
    19    25    26   ar
    20    27    22   ar
    21     8     1   am
    22    15    11   ar
    23    17    18    2
    24    11    12   ar
    25    13    14   ar
    26     1     7    2
    27    28    30    2
    28    22    23   ar
    29    24    25   ar
    30    26    27   ar
    31     8    10    1
    32    15    16    1
@<TRIPOS>MOLECULE
MolPort-005-114-135 CSSS00159524509 MCULE-1382020917 PubChem-31105705
 30 32 0 0 0
SMALL
GASTEIGER

@<TRIPOS>ATOM
      1 C           3.9562   42.9190   10.2246 C.2     1  UNL1        0.3098
      2 C           6.0448   41.5409   10.0254 C.3     1  UNL1        0.0957
      3 C           6.5817   40.7956    8.8057 C.3     1  UNL1        0.0326
      4 C           7.3154   41.7359    7.8213 C.3     1  UNL1        0.0735
      5 C           6.3508   42.8811    7.4335 C.3     1  UNL1        0.0326
      6 C           5.7850   43.6155    8.6501 C.3     1  UNL1        0.0957
      7 O           3.2908   43.9406    9.9009 O.2     1  UNL1       -0.2522
      8 N           3.4568   42.0144   11.2189 N.am    1  UNL1       -0.2396
      9 N           5.2143   42.6568    9.5897 N.am    1  UNL1       -0.2639
     10 H           4.0098   41.2292   11.4354 H       1  UNL1        0.1592
     11 C           0.8457   42.5952   13.4589 C.ar    1  UNL1        0.1547
     12 C           0.1326   42.1473   12.3665 C.ar    1  UNL1        0.1253
     13 C           2.2185   42.1618   11.9216 C.ar    1  UNL1        0.2017
     14 N           1.0139   41.8717   11.3872 N.ar    1  UNL1       -0.2118
     15 N           2.1627   42.6087   13.1898 N.ar    1  UNL1       -0.3201
     16 H           2.9051   42.8794   13.7770 H       1  UNL1        0.1688
     17 C           0.2737   43.0055   14.7452 C.2     1  UNL1        0.3587
     18 O          -0.6798   42.3505   15.2484 O.2     1  UNL1       -0.2432
     19 O           0.7932   44.1217   15.4036 O.3     1  UNL1       -0.4444
     20 C           1.8332   43.6465   17.5103 C.3     1  UNL1        0.0513
     21 C           0.6597   44.2952   16.8063 C.3     1  UNL1        0.2089
     22 C           8.6120   42.2374    8.4512 C.ar    1  UNL1       -0.0161
     23 C           8.6148   43.4453    9.1721 C.ar    1  UNL1       -0.0039
     24 C           9.7837   43.9114    9.7799 C.ar    1  UNL1       -0.0003
     25 C          10.9645   43.1725    9.6817 C.ar    1  UNL1       -0.0000
     26 C          10.9760   41.9658    8.9790 C.ar    1  UNL1       -0.0003
     27 C           9.8073   41.4994    8.3715 C.ar    1  UNL1       -0.0039
     28 C           7.6599   40.9880    6.5458 C.2     1  UNL1        0.1541
     29 C           7.3394   39.5329    6.4109 C.3     1  UNL1        0.0726
     30 O           8.1986   41.5557    5.6069 O.2     1  UNL1       -0.2957
@<TRIPOS>BOND
     1    20    21    1
     2    21    19    1
     3    17    19    1
     4    17    11    1
     5    12    14   ar
     6    13     8    1
     7    13    15   ar
     8     1     9   am
     9     2     9    1
    10     2     3    1
    11     3     4    1
    12     4     5    1
    13     4    28    1
    14     4    22    1
    15     5     6    1
    16     6     9    1
    17    29    28    1
    18    23    24   ar
    19    25    26   ar
    20    27    22   ar
    21     8     1   am
    22    15    11   ar
    23    17    18    2
    24    11    12   ar
    25    13    14   ar
    26     1     7    2
    27    28    30    2
    28    22    23   ar
    29    24    25   ar
    30    26    27   ar
    31     8    10    1
    32    15    16    1
@<TRIPOS>MOLECULE
MolPort-005-114-135 CSSS00159524509 MCULE-1382020917 PubChem-31105705
 30 32 0 0 0
SMALL
GASTEIGER

@<TRIPOS>ATOM
      1 C          11.2809   41.2310    8.8503 C.2     1  UNL1        0.3098
      2 C          12.8830   40.3588   10.5749 C.3     1  UNL1        0.0957
      3 C          13.0815   38.9216   11.0503 C.3     1  UNL1        0.0326
      4 C          13.9533   38.0973   10.0745 C.3     1  UNL1        0.0735
      5 C          13.3099   38.1689    8.6697 C.3     1  UNL1        0.0326
      6 C          13.0805   39.6053    8.1966 C.3     1  UNL1        0.0957
      7 O          10.8957   41.2844    7.6503 O.2     1  UNL1       -0.2522
      8 N          10.6441   42.0355    9.8520 N.am    1  UNL1       -0.2396
      9 N          12.3555   40.3557    9.2159 N.am    1  UNL1       -0.2639
     10 H          10.9770   41.9569   10.7751 H       1  UNL1        0.1592
     11 C           7.6993   43.6928    8.9834 C.ar    1  UNL1        0.1547
     12 C           8.3896   44.7245    9.5847 C.ar    1  UNL1        0.1253
     13 C           9.5629   42.9437    9.6169 C.ar    1  UNL1        0.2017
     14 N           9.5793   44.2410    9.9877 N.ar    1  UNL1       -0.2118
     15 N           8.4297   42.5644    8.9980 N.ar    1  UNL1       -0.3201
     16 H           8.1933   41.6772    8.6426 H       1  UNL1        0.1688
     17 C           6.3565   43.7855    8.4014 C.2     1  UNL1        0.3587
     18 O           5.3652   44.0346    9.1409 O.2     1  UNL1       -0.2432
     19 O           6.1881   43.5970    7.0284 O.3     1  UNL1       -0.4444
     20 C           6.8526   41.4921    6.0939 C.3     1  UNL1        0.0513
     21 C           7.1777   42.9649    6.2306 C.3     1  UNL1        0.2089
     22 C          15.3893   38.6139   10.0985 C.ar    1  UNL1       -0.0161
     23 C          15.6682   39.9182    9.6514 C.ar    1  UNL1       -0.0039
     24 C          16.9710   40.4223    9.6884 C.ar    1  UNL1       -0.0003
     25 C          18.0121   39.6322   10.1801 C.ar    1  UNL1       -0.0000
     26 C          17.7503   38.3393   10.6381 C.ar    1  UNL1       -0.0003
     27 C          16.4477   37.8350   10.6014 C.ar    1  UNL1       -0.0039
     28 C          13.9620   36.6372   10.4904 C.2     1  UNL1        0.1541
     29 C          13.8900   35.5556    9.4593 C.3     1  UNL1        0.0726
     30 O          14.0322   36.3165   11.6677 O.2     1  UNL1       -0.2957
@<TRIPOS>BOND
     1    20    21    1
     2    21    19    1
     3    17    19    1
     4    17    11    1
     5    12    14   ar
     6    13     8    1
     7    13    15   ar
     8     1     9   am
     9     2     9    1
    10     2     3    1
    11     3     4    1
    12     4     5    1
    13     4    28    1
    14     4    22    1
    15     5     6    1
    16     6     9    1
    17    29    28    1
    18    23    24   ar
    19    25    26   ar
    20    27    22   ar
    21     8     1   am
    22    15    11   ar
    23    17    18    2
    24    11    12   ar
    25    13    14   ar
    26     1     7    2
    27    28    30    2
    28    22    23   ar
    29    24    25   ar
    30    26    27   ar
    31     8    10    1
    32    15    16    1
@<TRIPOS>MOLECULE
MolPort-005-114-135 CSSS00159524509 MCULE-1382020917 PubChem-31105705
 30 32 0 0 0
SMALL
GASTEIGER

@<TRIPOS>ATOM
      1 C          15.8492   39.8280    9.3102 C.2     1  UNL1        0.3098
      2 C          14.1799   38.1081    8.5641 C.3     1  UNL1        0.0957
      3 C          14.4364   36.7043    8.0212 C.3     1  UNL1        0.0326
      4 C          14.7244   35.6846    9.1476 C.3     1  UNL1        0.0735
      5 C          15.9075   36.2143    9.9914 C.3     1  UNL1        0.0326
      6 C          15.6721   37.6318   10.5159 C.3     1  UNL1        0.0957
      7 O          16.7472   40.1960   10.1160 O.2     1  UNL1       -0.2522
      8 N          15.3902   40.7162    8.2823 N.am    1  UNL1       -0.2396
      9 N          15.2904   38.5125    9.4176 N.am    1  UNL1       -0.2639
     10 H          14.6905   40.3830    7.6750 H       1  UNL1        0.1592
     11 C          17.1895   43.6675    7.8071 C.ar    1  UNL1        0.1547
     12 C          15.9011   44.1544    7.7318 C.ar    1  UNL1        0.1253
     13 C          15.8679   42.0485    8.0685 C.ar    1  UNL1        0.2017
     14 N          15.0608   43.1165    7.8994 N.ar    1  UNL1       -0.2118
     15 N          17.1809   42.3400    8.0192 N.ar    1  UNL1       -0.3201
     16 H          17.9477   41.7301    8.1151 H       1  UNL1        0.1688
     17 C          18.4145   44.4629    7.6778 C.2     1  UNL1        0.3587
     18 O          19.0811   44.7648    8.7054 O.2     1  UNL1       -0.2432
     19 O          18.8332   44.8794    6.4127 O.3     1  UNL1       -0.4444
     20 C          17.6106   43.4168    4.9594 C.3     1  UNL1        0.0513
     21 C          17.9666   44.8516    5.2885 C.3     1  UNL1        0.2089
     22 C          13.4616   35.4524    9.9729 C.ar    1  UNL1       -0.0161
     23 C          12.8201   36.5434   10.5868 C.ar    1  UNL1       -0.0039
     24 C          11.6481   36.3592   11.3254 C.ar    1  UNL1       -0.0003
     25 C          11.0970   35.0826   11.4543 C.ar    1  UNL1       -0.0000
     26 C          11.7154   33.9906   10.8419 C.ar    1  UNL1       -0.0003
     27 C          12.8871   34.1746   10.1031 C.ar    1  UNL1       -0.0039
     28 C          15.1576   34.3576    8.5506 C.2     1  UNL1        0.1541
     29 C          15.5575   34.2692    7.1116 C.3     1  UNL1        0.0726
     30 O          15.1931   33.3415    9.2290 O.2     1  UNL1       -0.2957
@<TRIPOS>BOND
     1    20    21    1
     2    21    19    1
     3    17    19    1
     4    17    11    1
     5    12    14   ar
     6    13     8    1
     7    13    15   ar
     8     1     9   am
     9     2     9    1
    10     2     3    1
    11     3     4    1
    12     4     5    1
    13     4    28    1
    14     4    22    1
    15     5     6    1
    16     6     9    1
    17    29    28    1
    18    23    24   ar
    19    25    26   ar
    20    27    22   ar
    21     8     1   am
    22    15    11   ar
    23    17    18    2
    24    11    12   ar
    25    13    14   ar
    26     1     7    2
    27    28    30    2
    28    22    23   ar
    29    24    25   ar
    30    26    27   ar
    31     8    10    1
    32    15    16    1
@<TRIPOS>MOLECULE
MolPort-005-114-135 CSSS00159524509 MCULE-1382020917 PubChem-31105705
 30 32 0 0 0
SMALL
GASTEIGER

@<TRIPOS>ATOM
      1 C           8.0947   41.4091   14.9374 C.2     1  UNL1        0.3098
      2 C           7.7203   42.7604   12.8553 C.3     1  UNL1        0.0957
      3 C           8.7521   43.4691   11.9812 C.3     1  UNL1        0.0326
      4 C           9.4666   42.4969   11.0138 C.3     1  UNL1        0.0735
      5 C          10.0885   41.3521   11.8475 C.3     1  UNL1        0.0326
      6 C           9.0680   40.6545   12.7483 C.3     1  UNL1        0.0957
      7 O           8.5726   40.3865   15.5004 O.2     1  UNL1       -0.2522
      8 N           7.3034   42.3436   15.6835 N.am    1  UNL1       -0.2396
      9 N           8.3505   41.6423   13.5465 N.am    1  UNL1       -0.2639
     10 H           6.9551   43.1283   15.2018 H       1  UNL1        0.1592
     11 C           6.0521   42.5691   18.9326 C.ar    1  UNL1        0.1547
     12 C           6.9871   41.5693   19.1020 C.ar    1  UNL1        0.1253
     13 C           6.9794   42.2266   17.0730 C.ar    1  UNL1        0.2017
     14 N           7.5766   41.3542   17.9113 N.ar    1  UNL1       -0.2118
     15 N           6.0384   42.9915   17.6565 N.ar    1  UNL1       -0.3201
     16 H           5.4770   43.6898   17.2485 H       1  UNL1        0.1688
     17 C           5.1821   43.1143   19.9796 C.2     1  UNL1        0.3587
     18 O           4.2039   42.4383   20.4011 O.2     1  UNL1       -0.2432
     19 O           5.4468   44.3815   20.5022 O.3     1  UNL1       -0.4444
     20 C           7.3452   45.7087   21.1190 C.3     1  UNL1        0.0513
     21 C           6.4124   44.5859   21.5226 C.3     1  UNL1        0.2089
     22 C           8.4829   41.9983    9.9586 C.ar    1  UNL1       -0.0161
     23 C           8.6446   40.7146    9.4066 C.ar    1  UNL1       -0.0039
     24 C           7.7417   40.2262    8.4584 C.ar    1  UNL1       -0.0003
     25 C           6.6600   41.0116    8.0543 C.ar    1  UNL1       -0.0000
     26 C           6.4790   42.2838    8.6008 C.ar    1  UNL1       -0.0003
     27 C           7.3815   42.7722    9.5491 C.ar    1  UNL1       -0.0039
     28 C          10.6067   43.2087   10.3080 C.2     1  UNL1        0.1541
     29 C          11.6682   42.4249    9.6030 C.3     1  UNL1        0.0726
     30 O          10.6787   44.4289   10.2968 O.2     1  UNL1       -0.2957
@<TRIPOS>BOND
     1    20    21    1
     2    21    19    1
     3    17    19    1
     4    17    11    1
     5    12    14   ar
     6    13     8    1
     7    13    15   ar
     8     1     9   am
     9     2     9    1
    10     2     3    1
    11     3     4    1
    12     4     5    1
    13     4    28    1
    14     4    22    1
    15     5     6    1
    16     6     9    1
    17    29    28    1
    18    23    24   ar
    19    25    26   ar
    20    27    22   ar
    21     8     1   am
    22    15    11   ar
    23    17    18    2
    24    11    12   ar
    25    13    14   ar
    26     1     7    2
    27    28    30    2
    28    22    23   ar
    29    24    25   ar
    30    26    27   ar
    31     8    10    1
    32    15    16    1
@<TRIPOS>MOLECULE
MolPort-005-114-135 CSSS00159524509 MCULE-1382020917 PubChem-31105705
 30 32 0 0 0
SMALL
GASTEIGER

@<TRIPOS>ATOM
      1 C           8.6292   41.2845   14.0756 C.2     1  UNL1        0.3098
      2 C           8.3870   42.7270   12.0355 C.3     1  UNL1        0.0957
      3 C           9.4820   43.3719   11.1893 C.3     1  UNL1        0.0326
      4 C          10.1182   42.3727   10.1951 C.3     1  UNL1        0.0735
      5 C          10.6341   41.1536   10.9951 C.3     1  UNL1        0.0326
      6 C           9.5511   40.5180   11.8685 C.3     1  UNL1        0.0957
      7 O           9.0140   40.2078   14.6082 O.2     1  UNL1       -0.2522
      8 N           7.9149   42.2595   14.8471 N.am    1  UNL1       -0.2396
      9 N           8.9144   41.5382   12.6940 N.am    1  UNL1       -0.2639
     10 H           7.6383   43.0857   14.3887 H       1  UNL1        0.1592
     11 C           7.1791   42.6321   18.2373 C.ar    1  UNL1        0.1547
     12 C           7.0050   41.2707   18.0998 C.ar    1  UNL1        0.1253
     13 C           7.5717   42.1274   16.2305 C.ar    1  UNL1        0.2017
     14 N           7.2569   40.9533   16.8163 N.ar    1  UNL1       -0.2118
     15 N           7.5367   43.1832   17.0644 N.ar    1  UNL1       -0.3201
     16 H           7.7265   44.1282   16.8643 H       1  UNL1        0.1688
     17 C           7.0057   43.3968   19.4763 C.2     1  UNL1        0.3587
     18 O           7.3342   44.6141   19.5166 O.2     1  UNL1       -0.2432
     19 O           6.4755   42.7672   20.6040 O.3     1  UNL1       -0.4444
     20 C           4.1526   42.3128   20.9825 C.3     1  UNL1        0.0513
     21 C           5.3101   43.2504   21.2551 C.3     1  UNL1        0.2089
     22 C           9.1036   41.9931    9.1198 C.ar    1  UNL1       -0.0161
     23 C           9.1369   40.7056    8.5540 C.ar    1  UNL1       -0.0039
     24 C           8.2020   40.3264    7.5871 C.ar    1  UNL1       -0.0003
     25 C           7.2159   41.2265    7.1777 C.ar    1  UNL1       -0.0000
     26 C           7.1623   42.5047    7.7376 C.ar    1  UNL1       -0.0003
     27 C           8.0969   42.8840    8.7047 C.ar    1  UNL1       -0.0039
     28 C          11.3202   43.0062    9.5177 C.2     1  UNL1        0.1541
     29 C          12.4552   42.1568    9.0398 C.3     1  UNL1        0.0726
     30 O          11.3837   44.2147    9.3453 O.2     1  UNL1       -0.2957
@<TRIPOS>BOND
     1    20    21    1
     2    21    19    1
     3    17    19    1
     4    17    11    1
     5    12    14   ar
     6    13     8    1
     7    13    15   ar
     8     1     9   am
     9     2     9    1
    10     2     3    1
    11     3     4    1
    12     4     5    1
    13     4    28    1
    14     4    22    1
    15     5     6    1
    16     6     9    1
    17    29    28    1
    18    23    24   ar
    19    25    26   ar
    20    27    22   ar
    21     8     1   am
    22    15    11   ar
    23    17    18    2
    24    11    12   ar
    25    13    14   ar
    26     1     7    2
    27    28    30    2
    28    22    23   ar
    29    24    25   ar
    30    26    27   ar
    31     8    10    1
    32    15    16    1
@<TRIPOS>MOLECULE
MolPort-005-114-135 CSSS00159524509 MCULE-1382020917 PubChem-31105705
 30 32 0 0 0
SMALL
GASTEIGER

@<TRIPOS>ATOM
      1 C          10.7513   40.4674    8.9805 C.2     1  UNL1        0.3098
      2 C           8.9758   41.7832   10.1710 C.3     1  UNL1        0.0957
      3 C           8.1709   42.9761    9.6609 C.3     1  UNL1        0.0326
      4 C           6.9973   42.5444    8.7511 C.3     1  UNL1        0.0735
      5 C           7.5669   41.6833    7.5995 C.3     1  UNL1        0.0326
      6 C           8.3992   40.5016    8.1003 C.3     1  UNL1        0.0957
      7 O          11.0874   39.6883    8.0471 O.2     1  UNL1       -0.2522
      8 N          11.7066   40.8610    9.9747 N.am    1  UNL1       -0.2396
      9 N           9.4097   40.9680    9.0431 N.am    1  UNL1       -0.2639
     10 H          11.3986   41.4734   10.6814 H       1  UNL1        0.1592
     11 C          14.8389   39.4949   10.6788 C.ar    1  UNL1        0.1547
     12 C          15.1266   40.1719    9.5120 C.ar    1  UNL1        0.1253
     13 C          13.0723   40.4348   10.0219 C.ar    1  UNL1        0.2017
     14 N          13.9950   40.7706    9.0965 N.ar    1  UNL1       -0.2118
     15 N          13.5458   39.6535   11.0102 N.ar    1  UNL1       -0.3201
     16 H          13.0630   39.2876   11.7862 H       1  UNL1        0.1688
     17 C          15.7901   38.7055   11.4677 C.2     1  UNL1        0.3587
     18 O          15.3679   37.8284   12.2702 O.2     1  UNL1       -0.2432
     19 O          17.1597   38.9332   11.3215 O.3     1  UNL1       -0.4444
     20 C          19.2430   38.6949   10.1602 C.3     1  UNL1        0.0513
     21 C          18.0150   37.9887   10.6955 C.3     1  UNL1        0.2089
     22 C           5.9427   41.8122    9.5766 C.ar    1  UNL1       -0.0161
     23 C           4.7759   41.3358    8.9517 C.ar    1  UNL1       -0.0039
     24 C           3.8086   40.6397    9.6814 C.ar    1  UNL1       -0.0003
     25 C           3.9978   40.4034   11.0446 C.ar    1  UNL1       -0.0000
     26 C           5.1557   40.8599   11.6777 C.ar    1  UNL1       -0.0003
     27 C           6.1232   41.5558   10.9482 C.ar    1  UNL1       -0.0039
     28 C           6.3505   43.7650    8.1212 C.2     1  UNL1        0.1541
     29 C           6.4103   43.9750    6.6412 C.3     1  UNL1        0.0726
     30 O           5.7672   44.5939    8.8045 O.2     1  UNL1       -0.2957
@<TRIPOS>BOND
     1    20    21    1
     2    21    19    1
     3    17    19    1
     4    17    11    1
     5    12    14   ar
     6    13     8    1
     7    13    15   ar
     8     1     9   am
     9     2     9    1
    10     2     3    1
    11     3     4    1
    12     4     5    1
    13     4    28    1
    14     4    22    1
    15     5     6    1
    16     6     9    1
    17    29    28    1
    18    23    24   ar
    19    25    26   ar
    20    27    22   ar
    21     8     1   am
    22    15    11   ar
    23    17    18    2
    24    11    12   ar
    25    13    14   ar
    26     1     7    2
    27    28    30    2
    28    22    23   ar
    29    24    25   ar
    30    26    27   ar
    31     8    10    1
    32    15    16    1
