@<TRIPOS>MOLECULE
Molport-052-053-362
 27 29 0 0 0
SMALL
GASTEIGER

@<TRIPOS>ATOM
      1 C          10.4322   40.2020    6.7258 C.ar    1  UNL1        0.1545
      2 C          12.4585   39.8750    7.9087 C.ar    1  UNL1        0.0635
      3 C          13.2863   39.0429    8.8354 C.3     1  UNL1        0.0522
      4 C          12.9712   41.0602    7.3735 C.ar    1  UNL1        0.0492
      5 C          12.1637   41.8134    6.5091 C.ar    1  UNL1        0.1361
      6 N          11.2052   39.4716    7.5725 N.ar    1  UNL1       -0.2335
      7 N          10.9247   41.3533    6.1918 N.ar    1  UNL1       -0.2145
      8 C           8.7901   38.2803    6.9027 C.3     1  UNL1        0.0256
      9 C           9.0688   39.6854    6.3381 C.3     1  UNL1        0.1171
     10 C           6.8567   40.6507    5.7963 C.3     1  UNL1        0.0902
     11 N           8.0280   40.6840    6.6905 N.3     1  UNL1       -0.2614
     12 C           7.7306   40.8514    8.1390 C.3     1  UNL1        0.1186
     13 C           8.2613   42.1394    8.7436 C.ar    1  UNL1        0.0712
     14 C           9.9161   43.1594   10.1261 C.ar    1  UNL1        0.0985
     15 C           9.3367   44.4125    9.9477 C.ar    1  UNL1        0.0203
     16 C           8.2014   44.5315    9.1479 C.ar    1  UNL1       -0.0015
     17 C           7.6405   43.3986    8.5358 C.ar    1  UNL1       -0.0069
     18 C           6.4356   43.5672    7.6469 C.3     1  UNL1        0.0323
     19 N           9.3730   42.0691    9.5272 N.ar    1  UNL1       -0.2471
     20 N          12.6341   43.0234    5.8961 N.pl3   1  UNL1       -0.2781
     21 H          12.0397   43.4726    5.2526 H       1  UNL1        0.1555
     22 C          13.9102   43.6223    6.1570 C.ar    1  UNL1        0.1643
     23 C          15.5903   45.1010    5.9956 C.ar    1  UNL1        0.1030
     24 C          16.1999   44.1536    6.8102 C.ar    1  UNL1        0.0293
     25 C          17.6138   44.1915    7.2845 C.3     1  UNL1        0.0399
     26 N          14.3152   44.8008    5.6323 N.ar    1  UNL1       -0.2228
     27 S          15.1233   42.8847    7.0601 S.2     1  UNL1       -0.0557
@<TRIPOS>BOND
     1     9     8    1
     2     9    11    1
     3     9     1    1
     4    10    11    1
     5    12    11    1
     6    12    13    1
     7    14    19   ar
     8    15    16   ar
     9    17    13   ar
    10    18    17    1
    11     1     7   ar
    12     2     6   ar
    13     3     2    1
    14     4     5   ar
    15     5    20    1
    16    22    27   ar
    17    23    26   ar
    18    24    27   ar
    19    25    24    1
    20    20    22    1
    21    13    19   ar
    22    14    15   ar
    23    16    17   ar
    24     1     6   ar
    25     2     4   ar
    26     5     7   ar
    27    22    26   ar
    28    23    24   ar
    29    20    21    1
@<TRIPOS>MOLECULE
Molport-052-053-362
 27 29 0 0 0
SMALL
GASTEIGER

@<TRIPOS>ATOM
      1 C          10.0558   41.2855    7.6170 C.ar    1  UNL1        0.1545
      2 C          11.9474   39.9292    8.0574 C.ar    1  UNL1        0.0635
      3 C          12.5434   38.7328    8.7282 C.3     1  UNL1        0.0522
      4 C          12.7363   40.7540    7.2504 C.ar    1  UNL1        0.0492
      5 C          12.1409   41.8669    6.6395 C.ar    1  UNL1        0.1361
      6 N          10.6281   40.2104    8.2208 N.ar    1  UNL1       -0.2335
      7 N          10.8127   42.0905    6.8218 N.ar    1  UNL1       -0.2145
      8 C           7.7435   40.2512    7.5480 C.3     1  UNL1        0.0256
      9 C           8.5756   41.5254    7.7828 C.3     1  UNL1        0.1171
     10 C           9.5137   42.7536    9.7142 C.3     1  UNL1        0.0902
     11 N           8.3096   42.1753    9.0912 N.3     1  UNL1       -0.2614
     12 C           7.0741   42.9995    9.1851 C.3     1  UNL1        0.1186
     13 C           5.8644   42.2570    9.7250 C.ar    1  UNL1        0.0712
     14 C           3.5726   41.6789    9.4031 C.ar    1  UNL1        0.0985
     15 C           3.5517   40.9692   10.6004 C.ar    1  UNL1        0.0203
     16 C           4.7106   40.8979   11.3715 C.ar    1  UNL1       -0.0015
     17 C           5.8853   41.5433   10.9517 C.ar    1  UNL1       -0.0069
     18 C           7.1311   41.4152   11.7893 C.3     1  UNL1        0.0323
     19 N           4.7125   42.2956    8.9995 N.ar    1  UNL1       -0.2471
     20 N          12.8801   42.7397    5.7717 N.pl3   1  UNL1       -0.2781
     21 H          12.5218   42.9000    4.8689 H       1  UNL1        0.1555
     22 C          14.1044   43.3938    6.1301 C.ar    1  UNL1        0.1643
     23 C          15.7367   44.9328    6.0809 C.ar    1  UNL1        0.1030
     24 C          16.3043   44.0291    6.9719 C.ar    1  UNL1        0.0293
     25 C          17.6670   44.1332    7.5701 C.3     1  UNL1        0.0399
     26 N          14.5118   44.5748    5.6126 N.ar    1  UNL1       -0.2228
     27 S          15.2568   42.7254    7.1579 S.2     1  UNL1       -0.0557
@<TRIPOS>BOND
     1     9     8    1
     2     9    11    1
     3     9     1    1
     4    10    11    1
     5    12    11    1
     6    12    13    1
     7    14    19   ar
     8    15    16   ar
     9    17    13   ar
    10    18    17    1
    11     1     7   ar
    12     2     6   ar
    13     3     2    1
    14     4     5   ar
    15     5    20    1
    16    22    27   ar
    17    23    26   ar
    18    24    27   ar
    19    25    24    1
    20    20    22    1
    21    13    19   ar
    22    14    15   ar
    23    16    17   ar
    24     1     6   ar
    25     2     4   ar
    26     5     7   ar
    27    22    26   ar
    28    23    24   ar
    29    20    21    1
@<TRIPOS>MOLECULE
Molport-052-053-362
 27 29 0 0 0
SMALL
GASTEIGER

@<TRIPOS>ATOM
      1 C          10.8521   41.6214    7.9493 C.ar    1  UNL1        0.1545
      2 C          10.5352   40.4689    5.9041 C.ar    1  UNL1        0.0635
      3 C           9.7930   39.4433    5.1079 C.3     1  UNL1        0.0522
      4 C          11.5624   41.2130    5.3166 C.ar    1  UNL1        0.0492
      5 C          12.2354   42.1645    6.0964 C.ar    1  UNL1        0.1361
      6 N          10.2017   40.6900    7.2026 N.ar    1  UNL1       -0.2335
      7 N          11.8481   42.3580    7.3848 N.ar    1  UNL1       -0.2145
      8 C           8.9202   42.2509    9.4634 C.3     1  UNL1        0.0256
      9 C          10.4094   41.8707    9.3698 C.3     1  UNL1        0.1171
     10 C          10.2104   40.7872   11.5846 C.3     1  UNL1        0.0902
     11 N          10.7828   40.7179   10.2281 N.3     1  UNL1       -0.2614
     12 C          10.7611   39.3759    9.5853 C.3     1  UNL1        0.1186
     13 C          11.8315   38.4227   10.0871 C.ar    1  UNL1        0.0712
     14 C          12.3669   36.1924   10.7422 C.ar    1  UNL1        0.0985
     15 C          13.6775   36.5599   11.0333 C.ar    1  UNL1        0.0203
     16 C          14.0735   37.8826   10.8425 C.ar    1  UNL1       -0.0015
     17 C          13.1584   38.8383   10.3714 C.ar    1  UNL1       -0.0069
     18 C          13.6284   40.2511   10.1400 C.3     1  UNL1        0.0323
     19 N          11.4885   37.1191   10.2814 N.ar    1  UNL1       -0.2471
     20 N          13.2781   42.9882    5.5527 N.pl3   1  UNL1       -0.2781
     21 H          13.1589   43.3353    4.6392 H       1  UNL1        0.1555
     22 C          14.4809   43.3396    6.2491 C.ar    1  UNL1        0.1643
     23 C          16.3304   44.5045    6.7567 C.ar    1  UNL1        0.1030
     24 C          16.4971   43.4274    7.6198 C.ar    1  UNL1        0.0293
     25 C          17.6753   43.1930    8.5044 C.3     1  UNL1        0.0399
     26 N          15.2068   44.4513    5.9934 N.ar    1  UNL1       -0.2228
     27 S          15.2163   42.3582    7.4012 S.2     1  UNL1       -0.0557
@<TRIPOS>BOND
     1     9     8    1
     2     9    11    1
     3     9     1    1
     4    10    11    1
     5    12    11    1
     6    12    13    1
     7    14    19   ar
     8    15    16   ar
     9    17    13   ar
    10    18    17    1
    11     1     7   ar
    12     2     6   ar
    13     3     2    1
    14     4     5   ar
    15     5    20    1
    16    22    27   ar
    17    23    26   ar
    18    24    27   ar
    19    25    24    1
    20    20    22    1
    21    13    19   ar
    22    14    15   ar
    23    16    17   ar
    24     1     6   ar
    25     2     4   ar
    26     5     7   ar
    27    22    26   ar
    28    23    24   ar
    29    20    21    1
@<TRIPOS>MOLECULE
Molport-052-053-362
 27 29 0 0 0
SMALL
GASTEIGER

@<TRIPOS>ATOM
      1 C          10.3075   40.9282    8.0246 C.ar    1  UNL1        0.1545
      2 C          12.2929   39.6360    8.0401 C.ar    1  UNL1        0.0635
      3 C          13.0329   38.4216    8.5030 C.3     1  UNL1        0.0522
      4 C          12.9094   40.5588    7.1903 C.ar    1  UNL1        0.0492
      5 C          12.1828   41.6855    6.7791 C.ar    1  UNL1        0.1361
      6 N          11.0088   39.8386    8.4357 N.ar    1  UNL1       -0.2335
      7 N          10.8951   41.8288    7.1898 N.ar    1  UNL1       -0.2145
      8 C           7.9445   40.0491    7.7705 C.3     1  UNL1        0.0256
      9 C           8.8667   41.0816    8.4447 C.3     1  UNL1        0.1171
     10 C          10.0526   41.3495   10.5989 C.3     1  UNL1        0.0902
     11 N           8.7673   41.0882    9.9262 N.3     1  UNL1       -0.2614
     12 C           7.5816   41.7722   10.5100 C.3     1  UNL1        0.1186
     13 C           6.9551   42.8208    9.6077 C.ar    1  UNL1        0.0712
     14 C           5.1060   43.4100    8.2207 C.ar    1  UNL1        0.0985
     15 C           5.6921   44.6329    7.9064 C.ar    1  UNL1        0.0203
     16 C           6.9304   44.9575    8.4575 C.ar    1  UNL1       -0.0015
     17 C           7.5864   44.0573    9.3131 C.ar    1  UNL1       -0.0069
     18 C           8.9061   44.4546    9.9221 C.3     1  UNL1        0.0323
     19 N           5.7419   42.5465    9.0529 N.ar    1  UNL1       -0.2471
     20 N          12.7387   42.6584    5.8815 N.pl3   1  UNL1       -0.2781
     21 H          12.2509   42.8437    5.0467 H       1  UNL1        0.1555
     22 C          13.9555   43.3787    6.1179 C.ar    1  UNL1        0.1643
     23 C          15.4962   44.9953    5.8993 C.ar    1  UNL1        0.1030
     24 C          16.1873   44.1370    6.7469 C.ar    1  UNL1        0.0293
     25 C          17.5914   44.3191    7.2168 C.3     1  UNL1        0.0399
     26 N          14.2538   44.5687    5.5496 N.ar    1  UNL1       -0.2228
     27 S          15.2286   42.7866    7.0451 S.2     1  UNL1       -0.0557
@<TRIPOS>BOND
     1     9     8    1
     2     9    11    1
     3     9     1    1
     4    10    11    1
     5    12    11    1
     6    12    13    1
     7    14    19   ar
     8    15    16   ar
     9    17    13   ar
    10    18    17    1
    11     1     7   ar
    12     2     6   ar
    13     3     2    1
    14     4     5   ar
    15     5    20    1
    16    22    27   ar
    17    23    26   ar
    18    24    27   ar
    19    25    24    1
    20    20    22    1
    21    13    19   ar
    22    14    15   ar
    23    16    17   ar
    24     1     6   ar
    25     2     4   ar
    26     5     7   ar
    27    22    26   ar
    28    23    24   ar
    29    20    21    1
@<TRIPOS>MOLECULE
Molport-052-053-362
 27 29 0 0 0
SMALL
GASTEIGER

@<TRIPOS>ATOM
      1 C          10.1339   40.3903    7.1961 C.ar    1  UNL1        0.1545
      2 C          11.7495   40.7437    8.8921 C.ar    1  UNL1        0.0635
      3 C          12.2617   40.4382   10.2636 C.3     1  UNL1        0.0522
      4 C          12.4346   41.6375    8.0640 C.ar    1  UNL1        0.0492
      5 C          11.9220   41.8988    6.7853 C.ar    1  UNL1        0.1361
      6 N          10.6191   40.1396    8.4410 N.ar    1  UNL1       -0.2335
      7 N          10.7979   41.2523    6.3779 N.ar    1  UNL1       -0.2145
      8 C           8.8349   38.2157    7.2650 C.3     1  UNL1        0.0256
      9 C           8.9070   39.6535    6.7187 C.3     1  UNL1        0.1171
     10 C           6.4717   39.9147    6.3723 C.3     1  UNL1        0.0902
     11 N           7.6903   40.4570    6.9997 N.3     1  UNL1       -0.2614
     12 C           7.5320   40.9590    8.3916 C.3     1  UNL1        0.1186
     13 C           6.2415   41.7197    8.6410 C.ar    1  UNL1        0.0712
     14 C           3.9908   41.6244    9.4254 C.ar    1  UNL1        0.0985
     15 C           3.7982   42.9708    9.1288 C.ar    1  UNL1        0.0203
     16 C           4.8488   43.7062    8.5831 C.ar    1  UNL1       -0.0015
     17 C           6.0865   43.0945    8.3248 C.ar    1  UNL1       -0.0069
     18 C           7.2134   43.9267    7.7697 C.3     1  UNL1        0.0323
     19 N           5.1910   41.0402    9.1792 N.ar    1  UNL1       -0.2471
     20 N          12.5885   42.7795    5.8680 N.pl3   1  UNL1       -0.2781
     21 H          12.1599   42.9444    4.9972 H       1  UNL1        0.1555
     22 C          13.8354   43.4352    6.1335 C.ar    1  UNL1        0.1643
     23 C          15.4301   45.0089    6.0093 C.ar    1  UNL1        0.1030
     24 C          16.1054   44.0617    6.7707 C.ar    1  UNL1        0.0293
     25 C          17.5241   44.1561    7.2222 C.3     1  UNL1        0.0399
     26 N          14.1663   44.6557    5.6547 N.ar    1  UNL1       -0.2228
     27 S          15.1035   42.7264    6.9824 S.2     1  UNL1       -0.0557
@<TRIPOS>BOND
     1     9     8    1
     2     9    11    1
     3     9     1    1
     4    10    11    1
     5    12    11    1
     6    12    13    1
     7    14    19   ar
     8    15    16   ar
     9    17    13   ar
    10    18    17    1
    11     1     7   ar
    12     2     6   ar
    13     3     2    1
    14     4     5   ar
    15     5    20    1
    16    22    27   ar
    17    23    26   ar
    18    24    27   ar
    19    25    24    1
    20    20    22    1
    21    13    19   ar
    22    14    15   ar
    23    16    17   ar
    24     1     6   ar
    25     2     4   ar
    26     5     7   ar
    27    22    26   ar
    28    23    24   ar
    29    20    21    1
@<TRIPOS>MOLECULE
Molport-052-053-362
 27 29 0 0 0
SMALL
GASTEIGER

@<TRIPOS>ATOM
      1 C           9.7337   40.9671    7.5541 C.ar    1  UNL1        0.1545
      2 C          11.6455   39.6864    8.1165 C.ar    1  UNL1        0.0635
      3 C          12.2527   38.5446    8.8677 C.3     1  UNL1        0.0522
      4 C          12.4351   40.4854    7.2846 C.ar    1  UNL1        0.0492
      5 C          11.8290   41.5472    6.5978 C.ar    1  UNL1        0.1361
      6 N          10.3159   39.9421    8.2311 N.ar    1  UNL1       -0.2335
      7 N          10.4914   41.7462    6.7342 N.ar    1  UNL1       -0.2145
      8 C           7.4375   40.0473    7.0040 C.3     1  UNL1        0.0256
      9 C           8.2442   41.1776    7.6693 C.3     1  UNL1        0.1171
     10 C           8.6314   42.5136    9.7148 C.3     1  UNL1        0.0902
     11 N           7.8730   41.4166    9.0870 N.3     1  UNL1       -0.2614
     12 C           6.4217   41.3658    9.4119 C.3     1  UNL1        0.1186
     13 C           5.6165   42.5341    8.8707 C.ar    1  UNL1        0.0712
     14 C           5.5646   44.4047    7.3915 C.ar    1  UNL1        0.0985
     15 C           4.2765   44.7340    7.8038 C.ar    1  UNL1        0.0203
     16 C           3.6450   43.9451    8.7638 C.ar    1  UNL1       -0.0015
     17 C           4.3036   42.8352    9.3179 C.ar    1  UNL1       -0.0069
     18 C           3.5788   41.9810   10.3256 C.3     1  UNL1        0.0323
     19 N           6.1939   43.3274    7.9262 N.ar    1  UNL1       -0.2471
     20 N          12.5693   42.3895    5.7013 N.pl3   1  UNL1       -0.2781
     21 H          12.2666   42.4418    4.7660 H       1  UNL1        0.1555
     22 C          13.7193   43.1597    6.0751 C.ar    1  UNL1        0.1643
     23 C          15.1770   44.8657    6.0678 C.ar    1  UNL1        0.1030
     24 C          15.8448   44.0007    6.9273 C.ar    1  UNL1        0.0293
     25 C          17.1931   44.2317    7.5226 C.3     1  UNL1        0.0399
     26 N          13.9939   44.3930    5.5936 N.ar    1  UNL1       -0.2228
     27 S          14.9444   42.5870    7.0762 S.2     1  UNL1       -0.0557
@<TRIPOS>BOND
     1     9     8    1
     2     9    11    1
     3     9     1    1
     4    10    11    1
     5    12    11    1
     6    12    13    1
     7    14    19   ar
     8    15    16   ar
     9    17    13   ar
    10    18    17    1
    11     1     7   ar
    12     2     6   ar
    13     3     2    1
    14     4     5   ar
    15     5    20    1
    16    22    27   ar
    17    23    26   ar
    18    24    27   ar
    19    25    24    1
    20    20    22    1
    21    13    19   ar
    22    14    15   ar
    23    16    17   ar
    24     1     6   ar
    25     2     4   ar
    26     5     7   ar
    27    22    26   ar
    28    23    24   ar
    29    20    21    1
@<TRIPOS>MOLECULE
Molport-052-053-362
 27 29 0 0 0
SMALL
GASTEIGER

@<TRIPOS>ATOM
      1 C          10.6194   42.1379   10.0439 C.ar    1  UNL1        0.1545
      2 C          12.3892   40.5745   10.2324 C.ar    1  UNL1        0.0635
      3 C          13.0993   39.5263   11.0284 C.3     1  UNL1        0.0522
      4 C          12.8396   40.9186    8.9547 C.ar    1  UNL1        0.0492
      5 C          12.1475   41.9070    8.2403 C.ar    1  UNL1        0.1361
      6 N          11.2911   41.1877   10.7468 N.ar    1  UNL1       -0.2335
      7 N          11.0440   42.4745    8.7951 N.ar    1  UNL1       -0.2145
      8 C           9.1280   44.1847   10.1292 C.3     1  UNL1        0.0256
      9 C           9.3732   42.7506   10.6335 C.3     1  UNL1        0.1171
     10 C           7.3651   41.6999   11.6246 C.3     1  UNL1        0.0902
     11 N           8.2155   41.8436   10.4292 N.3     1  UNL1       -0.2614
     12 C           7.4936   41.9683    9.1339 C.3     1  UNL1        0.1186
     13 C           5.9858   42.0926    9.2655 C.ar    1  UNL1        0.0712
     14 C           3.9448   41.0292    9.8928 C.ar    1  UNL1        0.0985
     15 C           3.2118   42.1577    9.5367 C.ar    1  UNL1        0.0203
     16 C           3.8793   43.2762    9.0408 C.ar    1  UNL1       -0.0015
     17 C           5.2758   43.2631    8.8915 C.ar    1  UNL1       -0.0069
     18 C           5.9705   44.5019    8.3883 C.3     1  UNL1        0.0323
     19 N           5.2949   41.0245    9.7518 N.ar    1  UNL1       -0.2471
     20 N          12.5319   42.2891    6.9108 N.pl3   1  UNL1       -0.2781
     21 H          11.9682   41.9821    6.1643 H       1  UNL1        0.1555
     22 C          13.6805   43.0872    6.5961 C.ar    1  UNL1        0.1643
     23 C          14.8964   44.6862    5.5961 C.ar    1  UNL1        0.1030
     24 C          15.9071   44.0383    6.2971 C.ar    1  UNL1        0.0293
     25 C          17.3617   44.3622    6.2287 C.3     1  UNL1        0.0399
     26 N          13.6574   44.1526    5.7637 N.ar    1  UNL1       -0.2228
     27 S          15.2377   42.7378    7.1291 S.2     1  UNL1       -0.0557
@<TRIPOS>BOND
     1     9     8    1
     2     9    11    1
     3     9     1    1
     4    10    11    1
     5    12    11    1
     6    12    13    1
     7    14    19   ar
     8    15    16   ar
     9    17    13   ar
    10    18    17    1
    11     1     7   ar
    12     2     6   ar
    13     3     2    1
    14     4     5   ar
    15     5    20    1
    16    22    27   ar
    17    23    26   ar
    18    24    27   ar
    19    25    24    1
    20    20    22    1
    21    13    19   ar
    22    14    15   ar
    23    16    17   ar
    24     1     6   ar
    25     2     4   ar
    26     5     7   ar
    27    22    26   ar
    28    23    24   ar
    29    20    21    1
@<TRIPOS>MOLECULE
Molport-052-053-362
 27 29 0 0 0
SMALL
GASTEIGER

@<TRIPOS>ATOM
      1 C          10.5163   41.3003   10.0427 C.ar    1  UNL1        0.1545
      2 C          12.6881   40.3966   10.3226 C.ar    1  UNL1        0.0635
      3 C          13.6585   39.6144   11.1492 C.3     1  UNL1        0.0522
      4 C          13.0696   40.9078    9.0788 C.ar    1  UNL1        0.0492
      5 C          12.1314   41.6368    8.3340 C.ar    1  UNL1        0.1361
      6 N          11.4233   40.6011   10.7752 N.ar    1  UNL1       -0.2335
      7 N          10.8744   41.7951    8.8261 N.ar    1  UNL1       -0.2145
      8 C           9.0330   41.3603   12.0963 C.3     1  UNL1        0.0256
      9 C           9.1079   41.4536   10.5612 C.3     1  UNL1        0.1171
     10 C           9.3133   43.8963   10.2296 C.3     1  UNL1        0.0902
     11 N           8.4957   42.6895   10.0111 N.3     1  UNL1       -0.2614
     12 C           7.8566   42.5757    8.6720 C.3     1  UNL1        0.1186
     13 C           6.4438   43.1282    8.6023 C.ar    1  UNL1        0.0712
     14 C           5.0104   44.8358    7.7541 C.ar    1  UNL1        0.0985
     15 C           3.9121   44.2790    8.4034 C.ar    1  UNL1        0.0203
     16 C           4.0824   43.1222    9.1618 C.ar    1  UNL1       -0.0015
     17 C           5.3500   42.5287    9.2794 C.ar    1  UNL1       -0.0069
     18 C           5.4928   41.2575   10.0757 C.3     1  UNL1        0.0323
     19 N           6.2318   44.2545    7.8665 N.ar    1  UNL1       -0.2471
     20 N          12.4410   42.1640    7.0350 N.pl3   1  UNL1       -0.2781
     21 H          11.8186   41.9643    6.2988 H       1  UNL1        0.1555
     22 C          13.5945   42.9612    6.7366 C.ar    1  UNL1        0.1643
     23 C          14.8101   44.6003    5.8034 C.ar    1  UNL1        0.1030
     24 C          15.8287   43.8920    6.4308 C.ar    1  UNL1        0.0293
     25 C          17.2865   44.1953    6.3388 C.3     1  UNL1        0.0399
     26 N          13.5669   44.0778    5.9745 N.ar    1  UNL1       -0.2228
     27 S          15.1600   42.5524    7.1986 S.2     1  UNL1       -0.0557
@<TRIPOS>BOND
     1     9     8    1
     2     9    11    1
     3     9     1    1
     4    10    11    1
     5    12    11    1
     6    12    13    1
     7    14    19   ar
     8    15    16   ar
     9    17    13   ar
    10    18    17    1
    11     1     7   ar
    12     2     6   ar
    13     3     2    1
    14     4     5   ar
    15     5    20    1
    16    22    27   ar
    17    23    26   ar
    18    24    27   ar
    19    25    24    1
    20    20    22    1
    21    13    19   ar
    22    14    15   ar
    23    16    17   ar
    24     1     6   ar
    25     2     4   ar
    26     5     7   ar
    27    22    26   ar
    28    23    24   ar
    29    20    21    1
@<TRIPOS>MOLECULE
Molport-052-053-362
 27 29 0 0 0
SMALL
GASTEIGER

@<TRIPOS>ATOM
      1 C          10.8616   40.3482    8.1336 C.ar    1  UNL1        0.1545
      2 C          11.1292   40.5416    5.7878 C.ar    1  UNL1        0.0635
      3 C          10.8416   40.0252    4.4141 C.3     1  UNL1        0.0522
      4 C          11.9030   41.6924    5.9632 C.ar    1  UNL1        0.0492
      5 C          12.1514   42.1446    7.2671 C.ar    1  UNL1        0.1361
      6 N          10.6249   39.8979    6.8729 N.ar    1  UNL1       -0.2335
      7 N          11.6065   41.4729    8.3156 N.ar    1  UNL1       -0.2145
      8 C          11.1854   38.6035    9.9425 C.3     1  UNL1        0.0256
      9 C          10.2343   39.6325    9.3042 C.3     1  UNL1        0.1171
     10 C          10.6444   40.9808   11.3371 C.3     1  UNL1        0.0902
     11 N           9.6918   40.6195   10.2718 N.3     1  UNL1       -0.2614
     12 C           8.9027   41.7450    9.7015 C.3     1  UNL1        0.1186
     13 C           7.3978   41.5519    9.7661 C.ar    1  UNL1        0.0712
     14 C           5.4566   41.4634   11.1495 C.ar    1  UNL1        0.0985
     15 C           4.6479   41.1906   10.0499 C.ar    1  UNL1        0.0203
     16 C           5.2247   41.1021    8.7841 C.ar    1  UNL1       -0.0015
     17 C           6.6086   41.2759    8.6192 C.ar    1  UNL1       -0.0069
     18 C           7.1951   41.2116    7.2328 C.3     1  UNL1        0.0323
     19 N           6.7926   41.6364   10.9832 N.ar    1  UNL1       -0.2471
     20 N          12.9097   43.3364    7.5234 N.pl3   1  UNL1       -0.2781
     21 H          12.5876   43.9420    8.2296 H       1  UNL1        0.1555
     22 C          14.1040   43.7050    6.8212 C.ar    1  UNL1        0.1643
     23 C          15.3819   44.6338    5.2276 C.ar    1  UNL1        0.1030
     24 C          16.3621   43.9403    5.9284 C.ar    1  UNL1        0.0293
     25 C          17.8027   43.8479    5.5519 C.3     1  UNL1        0.0399
     26 N          14.1248   44.4990    5.7270 N.ar    1  UNL1       -0.2228
     27 S          15.6317   43.1065    7.1944 S.2     1  UNL1       -0.0557
@<TRIPOS>BOND
     1     9     8    1
     2     9    11    1
     3     9     1    1
     4    10    11    1
     5    12    11    1
     6    12    13    1
     7    14    19   ar
     8    15    16   ar
     9    17    13   ar
    10    18    17    1
    11     1     7   ar
    12     2     6   ar
    13     3     2    1
    14     4     5   ar
    15     5    20    1
    16    22    27   ar
    17    23    26   ar
    18    24    27   ar
    19    25    24    1
    20    20    22    1
    21    13    19   ar
    22    14    15   ar
    23    16    17   ar
    24     1     6   ar
    25     2     4   ar
    26     5     7   ar
    27    22    26   ar
    28    23    24   ar
    29    20    21    1
@<TRIPOS>MOLECULE
Molport-052-053-362
 27 29 0 0 0
SMALL
GASTEIGER

@<TRIPOS>ATOM
      1 C          10.7492   42.1678   10.1677 C.ar    1  UNL1        0.1545
      2 C          12.4406   40.5095   10.2006 C.ar    1  UNL1        0.0635
      3 C          13.1343   39.3947   10.9165 C.3     1  UNL1        0.0522
      4 C          12.8415   40.8819    8.9143 C.ar    1  UNL1        0.0492
      5 C          12.1667   41.9327    8.2765 C.ar    1  UNL1        0.1361
      6 N          11.4050   41.1567   10.7966 N.ar    1  UNL1       -0.2335
      7 N          11.1255   42.5328    8.9114 N.ar    1  UNL1       -0.2145
      8 C           9.2306   44.1948   10.2443 C.3     1  UNL1        0.0256
      9 C           9.5698   42.8190   10.8467 C.3     1  UNL1        0.1171
     10 C           8.0749   41.4132   12.2279 C.3     1  UNL1        0.0902
     11 N           8.4180   41.8823   10.8733 N.3     1  UNL1       -0.2614
     12 C           7.2651   42.2211    9.9954 C.3     1  UNL1        0.1186
     13 C           7.3937   41.7169    8.5688 C.ar    1  UNL1        0.0712
     14 C           8.2352   40.0160    7.1235 C.ar    1  UNL1        0.0985
     15 C           7.7375   40.6777    6.0046 C.ar    1  UNL1        0.0203
     16 C           7.0504   41.8788    6.1719 C.ar    1  UNL1       -0.0015
     17 C           6.8701   42.4226    7.4543 C.ar    1  UNL1       -0.0069
     18 C           6.0900   43.7030    7.6041 C.3     1  UNL1        0.0323
     19 N           8.0527   40.5433    8.3609 N.ar    1  UNL1       -0.2471
     20 N          12.5012   42.3486    6.9436 N.pl3   1  UNL1       -0.2781
     21 H          11.8863   42.0974    6.2169 H       1  UNL1        0.1555
     22 C          13.6694   43.1045    6.5986 C.ar    1  UNL1        0.1643
     23 C          14.9204   44.6451    5.5513 C.ar    1  UNL1        0.1030
     24 C          15.9198   43.9807    6.2530 C.ar    1  UNL1        0.0293
     25 C          17.3826   44.2584    6.1602 C.3     1  UNL1        0.0399
     26 N          13.6680   44.1532    5.7449 N.ar    1  UNL1       -0.2228
     27 S          15.2220   42.7183    7.1195 S.2     1  UNL1       -0.0557
@<TRIPOS>BOND
     1     9     8    1
     2     9    11    1
     3     9     1    1
     4    10    11    1
     5    12    11    1
     6    12    13    1
     7    14    19   ar
     8    15    16   ar
     9    17    13   ar
    10    18    17    1
    11     1     7   ar
    12     2     6   ar
    13     3     2    1
    14     4     5   ar
    15     5    20    1
    16    22    27   ar
    17    23    26   ar
    18    24    27   ar
    19    25    24    1
    20    20    22    1
    21    13    19   ar
    22    14    15   ar
    23    16    17   ar
    24     1     6   ar
    25     2     4   ar
    26     5     7   ar
    27    22    26   ar
    28    23    24   ar
    29    20    21    1
