@<TRIPOS>MOLECULE
MolPort-003-112-234 8959257 CSSS03437105859 MCULE-9045010206 PubChem-40887153 RCZVKESWLZZSND-UHFFFAOYSA-N ZINC000008959257 ZINC08959257
 33 35 0 0 0
SMALL
GASTEIGER

@<TRIPOS>ATOM
      1 C          11.7869   42.1590    7.6210 C.ar    1  UNL1        0.0537
      2 C          10.8472   42.4020    8.6295 C.ar    1  UNL1        0.0528
      3 C           9.4765   42.2388    8.4018 C.ar    1  UNL1        0.1533
      4 C           9.0265   41.8505    7.1124 C.ar    1  UNL1        0.0881
      5 C           9.9814   41.5887    6.1174 C.ar    1  UNL1        0.0193
      6 C          11.3449   41.7386    6.3680 C.ar    1  UNL1        0.0162
      7 C           6.6897   42.7517    7.2053 C.2     1  UNL1        0.2320
      8 C           6.4013   42.9786    8.6616 C.3     1  UNL1        0.1095
      9 C           6.6412   44.4360    9.0246 C.3     1  UNL1        0.0129
     10 C           4.9459   42.6495    8.9351 C.3     1  UNL1        0.0129
     11 C           7.2539   42.0736    9.5390 C.3     1  UNL1        0.2138
     12 O           6.0573   43.4198    6.3415 O.2     1  UNL1       -0.2744
     13 O           8.6273   42.4412    9.4957 O.3     1  UNL1       -0.4737
     14 N           7.6291   41.7529    6.7747 N.am    1  UNL1       -0.2559
     15 C          14.2012   42.5669    6.8454 C.2     1  UNL1        0.2554
     16 O          13.8783   42.6831    5.6322 O.2     1  UNL1       -0.2696
     17 N          13.1954   42.3163    7.8391 N.am    1  UNL1       -0.2801
     18 H          13.5063   42.2446    8.7704 H       1  UNL1        0.1552
     19 C          16.4813   43.6089    6.5778 C.ar    1  UNL1        0.1460
     20 C          17.8252   43.7153    6.9683 C.ar    1  UNL1        0.0373
     21 C          18.3281   42.9410    8.0093 C.ar    1  UNL1        0.0062
     22 C          17.4934   42.0482    8.6744 C.ar    1  UNL1        0.0373
     23 C          16.1458   41.9149    8.3062 C.ar    1  UNL1        0.1460
     24 C          15.6263   42.6988    7.2467 C.ar    1  UNL1        0.1214
     25 C          15.3186   45.6486    5.7765 C.3     1  UNL1        0.2525
     26 O          15.9834   44.4137    5.5449 O.3     1  UNL1       -0.4712
     27 C          15.8249   39.8609    9.6596 C.3     1  UNL1        0.2525
     28 O          15.3211   40.9979    8.9712 O.3     1  UNL1       -0.4712
     29 C           7.1703   40.6772    5.8929 C.3     1  UNL1        0.0983
     30 C           7.3575   39.3001    6.5257 C.3     1  UNL1        0.0219
     31 C           8.8082   38.8518    6.4860 C.3     1  UNL1        0.0017
     32 C           9.1387   38.3500    5.0967 C.3     1  UNL1        0.0001
     33 C           9.0369   37.7345    7.4861 C.3     1  UNL1        0.0001
@<TRIPOS>BOND
     1    25    26    1
     2    19    26    1
     3    20    21   ar
     4    22    23   ar
     5    23    28    1
     6    27    28    1
     7    24    15    1
     8    24    19   ar
     9    15    17   am
    10     2     3   ar
    11     3    13    1
    12     4     5   ar
    13     4    14    1
    14     6     1   ar
    15    29    14    1
    16    29    30    1
    17    30    31    1
    18    31    32    1
    19    31    33    1
    20     8     7    1
    21     8     9    1
    22     8    10    1
    23     8    11    1
    24    11    13    1
    25    17     1    1
    26    14     7   am
    27    19    20   ar
    28    21    22   ar
    29    23    24   ar
    30    15    16    2
    31     1     2   ar
    32     3     4   ar
    33     5     6   ar
    34     7    12    2
    35    17    18    1
@<TRIPOS>MOLECULE
MolPort-003-112-234 8959257 CSSS03437105859 MCULE-9045010206 PubChem-40887153 RCZVKESWLZZSND-UHFFFAOYSA-N ZINC000008959257 ZINC08959257
 33 35 0 0 0
SMALL
GASTEIGER

@<TRIPOS>ATOM
      1 C          14.0833   40.1853    8.7669 C.ar    1  UNL1        0.0537
      2 C          15.3841   40.5233    9.1580 C.ar    1  UNL1        0.0528
      3 C          16.0050   41.6872    8.6917 C.ar    1  UNL1        0.1533
      4 C          15.3148   42.5260    7.7776 C.ar    1  UNL1        0.0881
      5 C          14.0028   42.1862    7.4120 C.ar    1  UNL1        0.0193
      6 C          13.3929   41.0317    7.9014 C.ar    1  UNL1        0.0162
      7 C          17.2743   43.6557    6.6980 C.2     1  UNL1        0.2320
      8 C          18.4322   43.4334    7.6282 C.3     1  UNL1        0.1095
      9 C          19.2611   42.2465    7.1621 C.3     1  UNL1        0.0129
     10 C          19.3153   44.6669    7.6228 C.3     1  UNL1        0.0129
     11 C          17.9560   43.2107    9.0563 C.3     1  UNL1        0.2138
     12 O          17.4995   43.8654    5.4743 O.2     1  UNL1       -0.2744
     13 O          17.2797   41.9674    9.1973 O.3     1  UNL1       -0.4737
     14 N          15.9212   43.6892    7.1815 N.am    1  UNL1       -0.2559
     15 C          14.0141   37.6974    9.4011 C.2     1  UNL1        0.2554
     16 O          15.2302   37.5097    9.1264 O.2     1  UNL1       -0.2696
     17 N          13.4304   38.9994    9.2395 N.am    1  UNL1       -0.2801
     18 H          12.4795   39.0873    9.4789 H       1  UNL1        0.1552
     19 C          13.6933   35.2457    9.8937 C.ar    1  UNL1        0.1460
     20 C          12.8948   34.1927   10.3660 C.ar    1  UNL1        0.0373
     21 C          11.6116   34.4323   10.8481 C.ar    1  UNL1        0.0062
     22 C          11.1086   35.7297   10.8637 C.ar    1  UNL1        0.0373
     23 C          11.8799   36.8043   10.3951 C.ar    1  UNL1        0.1460
     24 C          13.1867   36.5686    9.9017 C.ar    1  UNL1        0.1214
     25 C          15.2802   34.0698    8.3925 C.3     1  UNL1        0.2525
     26 O          14.9926   34.9920    9.4353 O.3     1  UNL1       -0.4712
     27 C          10.4280   38.5658    9.4239 C.3     1  UNL1        0.2525
     28 O          11.3539   38.1031   10.3981 O.3     1  UNL1       -0.4712
     29 C          15.1186   44.8957    6.9681 C.3     1  UNL1        0.0983
     30 C          15.1402   45.3461    5.5090 C.3     1  UNL1        0.0219
     31 C          14.2574   44.4728    4.6344 C.3     1  UNL1        0.0017
     32 C          13.1670   43.8552    5.4832 C.3     1  UNL1        0.0001
     33 C          15.0805   43.3677    4.0003 C.3     1  UNL1        0.0001
@<TRIPOS>BOND
     1    25    26    1
     2    19    26    1
     3    20    21   ar
     4    22    23   ar
     5    23    28    1
     6    27    28    1
     7    24    15    1
     8    24    19   ar
     9    15    17   am
    10     2     3   ar
    11     3    13    1
    12     4     5   ar
    13     4    14    1
    14     6     1   ar
    15    29    14    1
    16    29    30    1
    17    30    31    1
    18    31    32    1
    19    31    33    1
    20     8     7    1
    21     8     9    1
    22     8    10    1
    23     8    11    1
    24    11    13    1
    25    17     1    1
    26    14     7   am
    27    19    20   ar
    28    21    22   ar
    29    23    24   ar
    30    15    16    2
    31     1     2   ar
    32     3     4   ar
    33     5     6   ar
    34     7    12    2
    35    17    18    1
@<TRIPOS>MOLECULE
MolPort-003-112-234 8959257 CSSS03437105859 MCULE-9045010206 PubChem-40887153 RCZVKESWLZZSND-UHFFFAOYSA-N ZINC000008959257 ZINC08959257
 33 35 0 0 0
SMALL
GASTEIGER

@<TRIPOS>ATOM
      1 C          11.7309   42.4247    9.1667 C.ar    1  UNL1        0.0537
      2 C          10.7630   43.3535    8.7673 C.ar    1  UNL1        0.0528
      3 C           9.4102   43.1729    9.0749 C.ar    1  UNL1        0.1533
      4 C           9.0058   42.0076    9.7780 C.ar    1  UNL1        0.0881
      5 C           9.9901   41.0962   10.1916 C.ar    1  UNL1        0.0193
      6 C          11.3363   41.3021    9.8921 C.ar    1  UNL1        0.0162
      7 C           6.6109   41.8984    9.0474 C.2     1  UNL1        0.2320
      8 C           6.2877   43.2651    8.5152 C.3     1  UNL1        0.1095
      9 C           6.4206   43.2848    7.0002 C.3     1  UNL1        0.0129
     10 C           4.8552   43.6105    8.8756 C.3     1  UNL1        0.0129
     11 C           7.1893   44.3237    9.1334 C.3     1  UNL1        0.2138
     12 O           5.9453   40.9065    8.6406 O.2     1  UNL1       -0.2744
     13 O           8.5342   44.1939    8.6890 O.3     1  UNL1       -0.4737
     14 N           7.6234   41.7050   10.0489 N.am    1  UNL1       -0.2559
     15 C          13.8365   42.0551    7.7431 C.2     1  UNL1        0.2554
     16 O          13.2339   41.3513    6.8880 O.2     1  UNL1       -0.2696
     17 N          13.1219   42.5973    8.8644 N.am    1  UNL1       -0.2801
     18 H          13.6432   43.1467    9.4934 H       1  UNL1        0.1552
     19 C          16.2363   41.7137    8.4363 C.ar    1  UNL1        0.1460
     20 C          17.6025   41.9902    8.2725 C.ar    1  UNL1        0.0373
     21 C          18.0392   42.8594    7.2774 C.ar    1  UNL1        0.0062
     22 C          17.1146   43.4653    6.4322 C.ar    1  UNL1        0.0373
     23 C          15.7412   43.2131    6.5719 C.ar    1  UNL1        0.1460
     24 C          15.2884   42.3303    7.5831 C.ar    1  UNL1        0.1214
     25 C          16.6635   39.8227    9.9842 C.3     1  UNL1        0.2525
     26 O          15.8143   40.8166    9.4261 O.3     1  UNL1       -0.4712
     27 C          14.7250   45.2579    5.6024 C.3     1  UNL1        0.2525
     28 O          14.8193   43.8450    5.7268 O.3     1  UNL1       -0.4712
     29 C           7.2526   41.0936   11.3272 C.3     1  UNL1        0.0983
     30 C           7.8363   41.8544   12.5156 C.3     1  UNL1        0.0219
     31 C           8.7659   40.9839   13.3433 C.3     1  UNL1        0.0017
     32 C           8.5600   41.2877   14.8117 C.3     1  UNL1        0.0001
     33 C          10.2102   41.2648   12.9747 C.3     1  UNL1        0.0001
@<TRIPOS>BOND
     1    25    26    1
     2    19    26    1
     3    20    21   ar
     4    22    23   ar
     5    23    28    1
     6    27    28    1
     7    24    15    1
     8    24    19   ar
     9    15    17   am
    10     2     3   ar
    11     3    13    1
    12     4     5   ar
    13     4    14    1
    14     6     1   ar
    15    29    14    1
    16    29    30    1
    17    30    31    1
    18    31    32    1
    19    31    33    1
    20     8     7    1
    21     8     9    1
    22     8    10    1
    23     8    11    1
    24    11    13    1
    25    17     1    1
    26    14     7   am
    27    19    20   ar
    28    21    22   ar
    29    23    24   ar
    30    15    16    2
    31     1     2   ar
    32     3     4   ar
    33     5     6   ar
    34     7    12    2
    35    17    18    1
@<TRIPOS>MOLECULE
MolPort-003-112-234 8959257 CSSS03437105859 MCULE-9045010206 PubChem-40887153 RCZVKESWLZZSND-UHFFFAOYSA-N ZINC000008959257 ZINC08959257
 33 35 0 0 0
SMALL
GASTEIGER

@<TRIPOS>ATOM
      1 C          11.5421   42.2637    9.3833 C.ar    1  UNL1        0.0537
      2 C          10.6166   43.1679    8.8496 C.ar    1  UNL1        0.0528
      3 C           9.2489   43.0557    9.1224 C.ar    1  UNL1        0.1533
      4 C           8.7860   41.9840    9.9304 C.ar    1  UNL1        0.0881
      5 C           9.7279   41.0983   10.4769 C.ar    1  UNL1        0.0193
      6 C          11.0894   41.2366   10.2092 C.ar    1  UNL1        0.0162
      7 C           6.4164   41.8566    9.1240 C.2     1  UNL1        0.2320
      8 C           6.1524   43.1653    8.4363 C.3     1  UNL1        0.1095
      9 C           6.3396   43.0175    6.9341 C.3     1  UNL1        0.0129
     10 C           4.7186   43.5837    8.7020 C.3     1  UNL1        0.0129
     11 C           7.0619   44.2617    8.9716 C.3     1  UNL1        0.2138
     12 O           5.7371   40.8435    8.8007 O.2     1  UNL1       -0.2744
     13 O           8.4174   44.0507    8.5958 O.3     1  UNL1       -0.4737
     14 N           7.3865   41.7474   10.1788 N.am    1  UNL1       -0.2559
     15 C          13.6398   41.9249    7.9404 C.2     1  UNL1        0.2554
     16 O          13.0019   41.3885    6.9944 O.2     1  UNL1       -0.2696
     17 N          12.9475   42.3675    9.1180 N.am    1  UNL1       -0.2801
     18 H          13.4969   42.7874    9.8188 H       1  UNL1        0.1552
     19 C          15.6573   42.9866    6.8640 C.ar    1  UNL1        0.1460
     20 C          17.0493   43.1408    6.7725 C.ar    1  UNL1        0.0373
     21 C          17.9009   42.4433    7.6237 C.ar    1  UNL1        0.0062
     22 C          17.3716   41.5806    8.5787 C.ar    1  UNL1        0.0373
     23 C          15.9846   41.4011    8.6938 C.ar    1  UNL1        0.1460
     24 C          15.1109   42.1066    7.8303 C.ar    1  UNL1        0.1214
     25 C          14.9943   45.0979    5.7427 C.3     1  UNL1        0.2525
     26 O          14.8120   43.7151    6.0171 O.3     1  UNL1       -0.4712
     27 C          16.1157   39.3047   10.0136 C.3     1  UNL1        0.2525
     28 O          15.4657   40.5144    9.6467 O.3     1  UNL1       -0.4712
     29 C           6.9528   41.2875   11.5000 C.3     1  UNL1        0.0983
     30 C           8.0750   40.5791   12.2556 C.3     1  UNL1        0.0219
     31 C           8.8580   41.5382   13.1353 C.3     1  UNL1        0.0017
     32 C           9.0294   40.9291   14.5103 C.3     1  UNL1        0.0001
     33 C           8.1149   42.8544   13.2631 C.3     1  UNL1        0.0001
@<TRIPOS>BOND
     1    25    26    1
     2    19    26    1
     3    20    21   ar
     4    22    23   ar
     5    23    28    1
     6    27    28    1
     7    24    15    1
     8    24    19   ar
     9    15    17   am
    10     2     3   ar
    11     3    13    1
    12     4     5   ar
    13     4    14    1
    14     6     1   ar
    15    29    14    1
    16    29    30    1
    17    30    31    1
    18    31    32    1
    19    31    33    1
    20     8     7    1
    21     8     9    1
    22     8    10    1
    23     8    11    1
    24    11    13    1
    25    17     1    1
    26    14     7   am
    27    19    20   ar
    28    21    22   ar
    29    23    24   ar
    30    15    16    2
    31     1     2   ar
    32     3     4   ar
    33     5     6   ar
    34     7    12    2
    35    17    18    1
@<TRIPOS>MOLECULE
MolPort-003-112-234 8959257 CSSS03437105859 MCULE-9045010206 PubChem-40887153 RCZVKESWLZZSND-UHFFFAOYSA-N ZINC000008959257 ZINC08959257
 33 35 0 0 0
SMALL
GASTEIGER

@<TRIPOS>ATOM
      1 C          11.0760   41.6049    9.8452 C.ar    1  UNL1        0.0537
      2 C          10.4282   42.6758    9.2186 C.ar    1  UNL1        0.0528
      3 C           9.0336   42.7878    9.2260 C.ar    1  UNL1        0.1533
      4 C           8.2575   41.7779    9.8533 C.ar    1  UNL1        0.0881
      5 C           8.9216   40.7219   10.4969 C.ar    1  UNL1        0.0193
      6 C          10.3134   40.6365   10.4954 C.ar    1  UNL1        0.0162
      7 C           6.1000   42.0919    8.6173 C.2     1  UNL1        0.2320
      8 C           6.1870   43.4543    7.9914 C.3     1  UNL1        0.1095
      9 C           6.6358   43.3401    6.5427 C.3     1  UNL1        0.0129
     10 C           4.8146   44.1002    8.0189 C.3     1  UNL1        0.0129
     11 C           7.1388   44.3554    8.7646 C.3     1  UNL1        0.2138
     12 O           5.3431   41.2245    8.1004 O.2     1  UNL1       -0.2744
     13 O           8.4899   43.9317    8.6303 O.3     1  UNL1       -0.4737
     14 N           6.8170   41.7740    9.8216 N.am    1  UNL1       -0.2559
     15 C          13.3292   40.9434    8.8048 C.2     1  UNL1        0.2554
     16 O          12.8066   40.5338    7.7330 O.2     1  UNL1       -0.2696
     17 N          12.5042   41.4778    9.8517 N.am    1  UNL1       -0.2801
     18 H          12.9694   41.7907   10.6610 H       1  UNL1        0.1552
     19 C          15.3866   39.9137    9.8357 C.ar    1  UNL1        0.1460
     20 C          16.7809   39.8732    9.9911 C.ar    1  UNL1        0.0373
     21 C          17.6001   40.7678    9.3094 C.ar    1  UNL1        0.0062
     22 C          17.0355   41.7169    8.4626 C.ar    1  UNL1        0.0373
     23 C          15.6449   41.7866    8.2882 C.ar    1  UNL1        0.1460
     24 C          14.8039   40.8800    8.9794 C.ar    1  UNL1        0.1214
     25 C          14.7509   38.6623   11.8813 C.3     1  UNL1        0.2525
     26 O          14.5769   38.9897   10.5090 O.3     1  UNL1       -0.4712
     27 C          15.8309   43.8593    6.9380 C.3     1  UNL1        0.2525
     28 O          15.0881   42.7598    7.4478 O.3     1  UNL1       -0.4712
     29 C           6.0675   41.3398   11.0027 C.3     1  UNL1        0.0983
     30 C           4.8810   42.2556   11.2955 C.3     1  UNL1        0.0219
     31 C           3.5807   41.4785   11.4068 C.3     1  UNL1        0.0017
     32 C           3.8879   39.9988   11.4895 C.3     1  UNL1        0.0001
     33 C           2.7111   41.7392   10.1917 C.3     1  UNL1        0.0001
@<TRIPOS>BOND
     1    25    26    1
     2    19    26    1
     3    20    21   ar
     4    22    23   ar
     5    23    28    1
     6    27    28    1
     7    24    15    1
     8    24    19   ar
     9    15    17   am
    10     2     3   ar
    11     3    13    1
    12     4     5   ar
    13     4    14    1
    14     6     1   ar
    15    29    14    1
    16    29    30    1
    17    30    31    1
    18    31    32    1
    19    31    33    1
    20     8     7    1
    21     8     9    1
    22     8    10    1
    23     8    11    1
    24    11    13    1
    25    17     1    1
    26    14     7   am
    27    19    20   ar
    28    21    22   ar
    29    23    24   ar
    30    15    16    2
    31     1     2   ar
    32     3     4   ar
    33     5     6   ar
    34     7    12    2
    35    17    18    1
@<TRIPOS>MOLECULE
MolPort-003-112-234 8959257 CSSS03437105859 MCULE-9045010206 PubChem-40887153 RCZVKESWLZZSND-UHFFFAOYSA-N ZINC000008959257 ZINC08959257
 33 35 0 0 0
SMALL
GASTEIGER

@<TRIPOS>ATOM
      1 C          11.8038   41.7367    8.4455 C.ar    1  UNL1        0.0537
      2 C          11.9184   40.9043    9.5648 C.ar    1  UNL1        0.0528
      3 C          13.1467   40.3448    9.9332 C.ar    1  UNL1        0.1533
      4 C          14.2943   40.5997    9.1371 C.ar    1  UNL1        0.0881
      5 C          14.1689   41.4543    8.0305 C.ar    1  UNL1        0.0193
      6 C          12.9400   42.0180    7.6892 C.ar    1  UNL1        0.0162
      7 C          15.6692   38.5947    9.7463 C.2     1  UNL1        0.2320
      8 C          15.0679   38.0624   11.0154 C.3     1  UNL1        0.1095
      9 C          14.1119   36.9206   10.7061 C.3     1  UNL1        0.0129
     10 C          16.1770   37.5320   11.9041 C.3     1  UNL1        0.0129
     11 C          14.3431   39.1584   11.7829 C.3     1  UNL1        0.2138
     12 O          16.3149   37.8122    8.9959 O.2     1  UNL1       -0.2744
     13 O          13.1657   39.5832   11.1073 O.3     1  UNL1       -0.4737
     14 N          15.5715   39.9855    9.3972 N.am    1  UNL1       -0.2559
     15 C           9.2388   41.8222    8.3442 C.2     1  UNL1        0.2554
     16 O           9.0957   40.7641    9.0147 O.2     1  UNL1       -0.2696
     17 N          10.5538   42.3224    8.0572 N.am    1  UNL1       -0.2801
     18 H          10.6025   43.1574    7.5380 H       1  UNL1        0.1552
     19 C           7.5542   42.3496    6.5441 C.ar    1  UNL1        0.1460
     20 C           6.4251   43.0562    6.1019 C.ar    1  UNL1        0.0373
     21 C           5.7736   43.9552    6.9408 C.ar    1  UNL1        0.0062
     22 C           6.2433   44.1605    8.2345 C.ar    1  UNL1        0.0373
     23 C           7.3719   43.4726    8.7061 C.ar    1  UNL1        0.1460
     24 C           8.0414   42.5565    7.8580 C.ar    1  UNL1        0.1214
     25 C           7.9397   40.0297    5.7538 C.3     1  UNL1        0.2525
     26 O           8.1840   41.4289    5.6964 O.3     1  UNL1       -0.4712
     27 C           8.9914   44.4986   10.2804 C.3     1  UNL1        0.2525
     28 O           7.8460   43.7034   10.0043 O.3     1  UNL1       -0.4712
     29 C          16.8002   40.7589    9.2038 C.3     1  UNL1        0.0983
     30 C          16.5874   41.9452    8.2660 C.3     1  UNL1        0.0219
     31 C          17.7847   42.8798    8.2554 C.3     1  UNL1        0.0017
     32 C          17.5271   44.0333    9.2009 C.3     1  UNL1        0.0001
     33 C          18.0105   43.4231    6.8573 C.3     1  UNL1        0.0001
@<TRIPOS>BOND
     1    25    26    1
     2    19    26    1
     3    20    21   ar
     4    22    23   ar
     5    23    28    1
     6    27    28    1
     7    24    15    1
     8    24    19   ar
     9    15    17   am
    10     2     3   ar
    11     3    13    1
    12     4     5   ar
    13     4    14    1
    14     6     1   ar
    15    29    14    1
    16    29    30    1
    17    30    31    1
    18    31    32    1
    19    31    33    1
    20     8     7    1
    21     8     9    1
    22     8    10    1
    23     8    11    1
    24    11    13    1
    25    17     1    1
    26    14     7   am
    27    19    20   ar
    28    21    22   ar
    29    23    24   ar
    30    15    16    2
    31     1     2   ar
    32     3     4   ar
    33     5     6   ar
    34     7    12    2
    35    17    18    1
@<TRIPOS>MOLECULE
MolPort-003-112-234 8959257 CSSS03437105859 MCULE-9045010206 PubChem-40887153 RCZVKESWLZZSND-UHFFFAOYSA-N ZINC000008959257 ZINC08959257
 33 35 0 0 0
SMALL
GASTEIGER

@<TRIPOS>ATOM
      1 C          11.6621   41.6773    8.8184 C.ar    1  UNL1        0.0537
      2 C          11.8510   40.8053    9.8968 C.ar    1  UNL1        0.0528
      3 C          13.1061   40.2533   10.1753 C.ar    1  UNL1        0.1533
      4 C          14.2038   40.5576    9.3279 C.ar    1  UNL1        0.0881
      5 C          14.0045   41.4511    8.2638 C.ar    1  UNL1        0.0193
      6 C          12.7503   42.0063    8.0125 C.ar    1  UNL1        0.0162
      7 C          15.6402   38.5548    9.7827 C.2     1  UNL1        0.2320
      8 C          15.1183   37.9647   11.0613 C.3     1  UNL1        0.1095
      9 C          14.1638   36.8192   10.7611 C.3     1  UNL1        0.0129
     10 C          16.2827   37.4201   11.8667 C.3     1  UNL1        0.0129
     11 C          14.4208   39.0184   11.9093 C.3     1  UNL1        0.2138
     12 O          16.2549   37.8123    8.9683 O.2     1  UNL1       -0.2744
     13 O          13.2016   39.4483   11.3162 O.3     1  UNL1       -0.4737
     14 N          15.5025   39.9559    9.4936 N.am    1  UNL1       -0.2559
     15 C           9.1137   41.5862    8.5108 C.2     1  UNL1        0.2554
     16 O           9.0418   40.3594    8.7927 O.2     1  UNL1       -0.2696
     17 N          10.3839   42.2559    8.5223 N.am    1  UNL1       -0.2801
     18 H          10.3764   43.2157    8.3033 H       1  UNL1        0.1552
     19 C           6.9838   42.7489    9.1946 C.ar    1  UNL1        0.1460
     20 C           5.8199   43.4564    8.8564 C.ar    1  UNL1        0.0373
     21 C           5.5353   43.7677    7.5303 C.ar    1  UNL1        0.0062
     22 C           6.4113   43.3746    6.5232 C.ar    1  UNL1        0.0373
     23 C           7.5817   42.6627    6.8272 C.ar    1  UNL1        0.1460
     24 C           7.8782   42.3409    8.1746 C.ar    1  UNL1        0.1214
     25 C           6.5717   41.4790   11.2855 C.3     1  UNL1        0.2525
     26 O           7.2694   42.4653   10.5365 O.3     1  UNL1       -0.4712
     27 C           8.6174   40.8949    5.4286 C.3     1  UNL1        0.2525
     28 O           8.4454   42.2557    5.8016 O.3     1  UNL1       -0.4712
     29 C          16.7069   40.7569    9.2631 C.3     1  UNL1        0.0983
     30 C          16.4550   41.8984    8.2805 C.3     1  UNL1        0.0219
     31 C          17.6610   42.8132    8.1549 C.3     1  UNL1        0.0017
     32 C          17.5046   43.9802    9.1060 C.3     1  UNL1        0.0001
     33 C          17.7722   43.3387    6.7364 C.3     1  UNL1        0.0001
@<TRIPOS>BOND
     1    25    26    1
     2    19    26    1
     3    20    21   ar
     4    22    23   ar
     5    23    28    1
     6    27    28    1
     7    24    15    1
     8    24    19   ar
     9    15    17   am
    10     2     3   ar
    11     3    13    1
    12     4     5   ar
    13     4    14    1
    14     6     1   ar
    15    29    14    1
    16    29    30    1
    17    30    31    1
    18    31    32    1
    19    31    33    1
    20     8     7    1
    21     8     9    1
    22     8    10    1
    23     8    11    1
    24    11    13    1
    25    17     1    1
    26    14     7   am
    27    19    20   ar
    28    21    22   ar
    29    23    24   ar
    30    15    16    2
    31     1     2   ar
    32     3     4   ar
    33     5     6   ar
    34     7    12    2
    35    17    18    1
@<TRIPOS>MOLECULE
MolPort-003-112-234 8959257 CSSS03437105859 MCULE-9045010206 PubChem-40887153 RCZVKESWLZZSND-UHFFFAOYSA-N ZINC000008959257 ZINC08959257
 33 35 0 0 0
SMALL
GASTEIGER

@<TRIPOS>ATOM
      1 C          10.3210   40.8783    9.4811 C.ar    1  UNL1        0.0537
      2 C          10.9310   40.1741   10.5258 C.ar    1  UNL1        0.0528
      3 C          12.3060   39.9154   10.5237 C.ar    1  UNL1        0.1533
      4 C          13.0938   40.3469    9.4243 C.ar    1  UNL1        0.0881
      5 C          12.4724   41.0713    8.3949 C.ar    1  UNL1        0.0193
      6 C          11.1037   41.3361    8.4229 C.ar    1  UNL1        0.0162
      7 C          14.9967   38.7280    9.6233 C.2     1  UNL1        0.2320
      8 C          14.9144   38.1764   11.0177 C.3     1  UNL1        0.1095
      9 C          14.1904   36.8389   11.0125 C.3     1  UNL1        0.0129
     10 C          16.3190   37.9594   11.5479 C.3     1  UNL1        0.0129
     11 C          14.2108   39.1487   11.9534 C.3     1  UNL1        0.2138
     12 O          15.5613   38.0460    8.7241 O.2     1  UNL1       -0.2744
     13 O          12.8265   39.2641   11.6479 O.3     1  UNL1       -0.4737
     14 N          14.4959   40.0370    9.3050 N.am    1  UNL1       -0.2559
     15 C           8.2757   42.3953    9.8160 C.2     1  UNL1        0.2554
     16 O           8.9682   43.3893   10.1653 O.2     1  UNL1       -0.2696
     17 N           8.9144   41.1565    9.4702 N.am    1  UNL1       -0.2801
     18 H           8.3229   40.4189    9.1961 H       1  UNL1        0.1552
     19 C           5.9816   41.8633   10.7161 C.ar    1  UNL1        0.1460
     20 C           4.5853   41.9806   10.6379 C.ar    1  UNL1        0.0373
     21 C           3.9887   42.7307    9.6292 C.ar    1  UNL1        0.0062
     22 C           4.7811   43.3739    8.6833 C.ar    1  UNL1        0.0373
     23 C           6.1800   43.2737    8.7310 C.ar    1  UNL1        0.1460
     24 C           6.7952   42.5110    9.7542 C.ar    1  UNL1        0.1214
     25 C           7.6645   41.6046   12.5205 C.3     1  UNL1        0.2525
     26 O           6.5683   41.1256   11.7526 O.3     1  UNL1       -0.4712
     27 C           6.9311   43.5585    6.3840 C.3     1  UNL1        0.2525
     28 O           6.9656   43.9102    7.7609 O.3     1  UNL1       -0.4712
     29 C          15.4142   41.0358    8.7532 C.3     1  UNL1        0.0983
     30 C          14.8095   41.7703    7.5587 C.3     1  UNL1        0.0219
     31 C          15.4484   43.1324    7.3497 C.3     1  UNL1        0.0017
     32 C          15.0263   43.6815    6.0039 C.3     1  UNL1        0.0001
     33 C          16.9600   43.0111    7.3859 C.3     1  UNL1        0.0001
@<TRIPOS>BOND
     1    25    26    1
     2    19    26    1
     3    20    21   ar
     4    22    23   ar
     5    23    28    1
     6    27    28    1
     7    24    15    1
     8    24    19   ar
     9    15    17   am
    10     2     3   ar
    11     3    13    1
    12     4     5   ar
    13     4    14    1
    14     6     1   ar
    15    29    14    1
    16    29    30    1
    17    30    31    1
    18    31    32    1
    19    31    33    1
    20     8     7    1
    21     8     9    1
    22     8    10    1
    23     8    11    1
    24    11    13    1
    25    17     1    1
    26    14     7   am
    27    19    20   ar
    28    21    22   ar
    29    23    24   ar
    30    15    16    2
    31     1     2   ar
    32     3     4   ar
    33     5     6   ar
    34     7    12    2
    35    17    18    1
@<TRIPOS>MOLECULE
MolPort-003-112-234 8959257 CSSS03437105859 MCULE-9045010206 PubChem-40887153 RCZVKESWLZZSND-UHFFFAOYSA-N ZINC000008959257 ZINC08959257
 33 35 0 0 0
SMALL
GASTEIGER

@<TRIPOS>ATOM
      1 C          10.2765   40.8910    9.5119 C.ar    1  UNL1        0.0537
      2 C          10.8949   40.1759   10.5440 C.ar    1  UNL1        0.0528
      3 C          12.2714   39.9258   10.5330 C.ar    1  UNL1        0.1533
      4 C          13.0523   40.3778    9.4368 C.ar    1  UNL1        0.0881
      5 C          12.4223   41.1129    8.4202 C.ar    1  UNL1        0.0193
      6 C          11.0521   41.3687    8.4572 C.ar    1  UNL1        0.0162
      7 C          14.9660   38.7683    9.6053 C.2     1  UNL1        0.2320
      8 C          14.8925   38.1965   10.9921 C.3     1  UNL1        0.1095
      9 C          14.1768   36.8546   10.9707 C.3     1  UNL1        0.0129
     10 C          16.3006   37.9808   11.5137 C.3     1  UNL1        0.0129
     11 C          14.1867   39.1509   11.9443 C.3     1  UNL1        0.2138
     12 O          15.5312   38.1026    8.6944 O.2     1  UNL1       -0.2744
     13 O          12.8004   39.2620   11.6458 O.3     1  UNL1       -0.4737
     14 N          14.4558   40.0785    9.3077 N.am    1  UNL1       -0.2559
     15 C           8.2309   42.4301    9.7207 C.2     1  UNL1        0.2554
     16 O           8.9262   43.4621    9.9236 O.2     1  UNL1       -0.2696
     17 N           8.8682   41.1606    9.5103 N.am    1  UNL1       -0.2801
     18 H           8.2741   40.3926    9.3475 H       1  UNL1        0.1552
     19 C           6.0972   43.2622    8.6668 C.ar    1  UNL1        0.1460
     20 C           4.6965   43.3507    8.6589 C.ar    1  UNL1        0.0373
     21 C           3.9375   42.7247    9.6429 C.ar    1  UNL1        0.0062
     22 C           4.5695   42.0014   10.6498 C.ar    1  UNL1        0.0373
     23 C           5.9684   41.8966   10.6885 C.ar    1  UNL1        0.1460
     24 C           6.7483   42.5318    9.6911 C.ar    1  UNL1        0.1214
     25 C           6.7562   43.5002    6.2869 C.3     1  UNL1        0.2525
     26 O           6.8462   43.8766    7.6548 O.3     1  UNL1       -0.4712
     27 C           7.6332   41.7271   12.5198 C.3     1  UNL1        0.2525
     28 O           6.5930   41.1816   11.7191 O.3     1  UNL1       -0.4712
     29 C          15.3657   41.0907    8.7666 C.3     1  UNL1        0.0983
     30 C          14.8029   41.7527    7.5108 C.3     1  UNL1        0.0219
     31 C          15.3567   43.1532    7.3130 C.3     1  UNL1        0.0017
     32 C          15.0194   43.6317    5.9172 C.3     1  UNL1        0.0001
     33 C          16.8635   43.1481    7.4869 C.3     1  UNL1        0.0001
@<TRIPOS>BOND
     1    25    26    1
     2    19    26    1
     3    20    21   ar
     4    22    23   ar
     5    23    28    1
     6    27    28    1
     7    24    15    1
     8    24    19   ar
     9    15    17   am
    10     2     3   ar
    11     3    13    1
    12     4     5   ar
    13     4    14    1
    14     6     1   ar
    15    29    14    1
    16    29    30    1
    17    30    31    1
    18    31    32    1
    19    31    33    1
    20     8     7    1
    21     8     9    1
    22     8    10    1
    23     8    11    1
    24    11    13    1
    25    17     1    1
    26    14     7   am
    27    19    20   ar
    28    21    22   ar
    29    23    24   ar
    30    15    16    2
    31     1     2   ar
    32     3     4   ar
    33     5     6   ar
    34     7    12    2
    35    17    18    1
@<TRIPOS>MOLECULE
MolPort-003-112-234 8959257 CSSS03437105859 MCULE-9045010206 PubChem-40887153 RCZVKESWLZZSND-UHFFFAOYSA-N ZINC000008959257 ZINC08959257
 33 35 0 0 0
SMALL
GASTEIGER

@<TRIPOS>ATOM
      1 C           6.8367   43.7442    7.5526 C.ar    1  UNL1        0.0537
      2 C           7.9769   43.0344    7.9465 C.ar    1  UNL1        0.0528
      3 C           8.0238   42.3516    9.1668 C.ar    1  UNL1        0.1533
      4 C           6.9045   42.4065   10.0385 C.ar    1  UNL1        0.0881
      5 C           5.7600   43.1033    9.6204 C.ar    1  UNL1        0.0193
      6 C           5.7245   43.7625    8.3921 C.ar    1  UNL1        0.0162
      7 C           8.0547   41.9268   12.2130 C.2     1  UNL1        0.2320
      8 C           9.3789   41.3214   11.8452 C.3     1  UNL1        0.1095
      9 C          10.4671   42.3838   11.8657 C.3     1  UNL1        0.0129
     10 C           9.7335   40.2520   12.8611 C.3     1  UNL1        0.0129
     11 C           9.3200   40.6590   10.4765 C.3     1  UNL1        0.2138
     12 O           7.9322   42.5092   13.3258 O.2     1  UNL1       -0.2744
     13 O           9.1848   41.6171    9.4339 O.3     1  UNL1       -0.4737
     14 N           6.9117   41.8089   11.3497 N.am    1  UNL1       -0.2559
     15 C           7.5270   44.1670    5.1151 C.2     1  UNL1        0.2554
     16 O           8.3489   43.2110    5.0965 O.2     1  UNL1       -0.2696
     17 N           6.7701   44.4447    6.3033 N.am    1  UNL1       -0.2801
     18 H           6.1371   45.1973    6.2549 H       1  UNL1        0.1552
     19 C           6.5606   44.5261    2.8144 C.ar    1  UNL1        0.1460
     20 C           6.3966   45.3271    1.6737 C.ar    1  UNL1        0.0373
     21 C           6.9829   46.5868    1.5974 C.ar    1  UNL1        0.0062
     22 C           7.7426   47.0629    2.6616 C.ar    1  UNL1        0.0373
     23 C           7.9291   46.2855    3.8149 C.ar    1  UNL1        0.1460
     24 C           7.3366   45.0015    3.9000 C.ar    1  UNL1        0.1214
     25 C           6.3217   42.1724    2.0676 C.3     1  UNL1        0.2525
     26 O           5.9430   43.2707    2.8867 O.3     1  UNL1       -0.4712
     27 C           8.1617   47.4121    6.0127 C.3     1  UNL1        0.2525
     28 O           8.7127   46.7688    4.8712 O.3     1  UNL1       -0.4712
     29 C           5.7010   41.1588   11.8562 C.3     1  UNL1        0.0983
     30 C           4.8907   40.5078   10.7374 C.3     1  UNL1        0.0219
     31 C           3.4025   40.7703   10.8904 C.3     1  UNL1        0.0017
     32 C           2.8640   41.3599    9.6045 C.3     1  UNL1        0.0001
     33 C           3.1585   41.7460   12.0258 C.3     1  UNL1        0.0001
@<TRIPOS>BOND
     1    25    26    1
     2    19    26    1
     3    20    21   ar
     4    22    23   ar
     5    23    28    1
     6    27    28    1
     7    24    15    1
     8    24    19   ar
     9    15    17   am
    10     2     3   ar
    11     3    13    1
    12     4     5   ar
    13     4    14    1
    14     6     1   ar
    15    29    14    1
    16    29    30    1
    17    30    31    1
    18    31    32    1
    19    31    33    1
    20     8     7    1
    21     8     9    1
    22     8    10    1
    23     8    11    1
    24    11    13    1
    25    17     1    1
    26    14     7   am
    27    19    20   ar
    28    21    22   ar
    29    23    24   ar
    30    15    16    2
    31     1     2   ar
    32     3     4   ar
    33     5     6   ar
    34     7    12    2
    35    17    18    1
