@<TRIPOS>MOLECULE
MolPort-046-956-540 MCULE-3347978788 PubChem-132765396
 27 30 0 0 0
SMALL
GASTEIGER

@<TRIPOS>ATOM
      1 C          12.3487   41.5728    7.3621 C.ar    1  UNL1        0.1361
      2 C          10.9925   41.7781    7.1111 C.ar    1  UNL1        0.0492
      3 C          10.0704   41.4400    8.1014 C.ar    1  UNL1        0.0644
      4 C          11.8300   40.7271    9.5116 C.ar    1  UNL1        0.1406
      5 C          12.2837   40.1591   10.8075 C.3     1  UNL1        0.0737
      6 N          10.5053   40.9209    9.2820 N.ar    1  UNL1       -0.2348
      7 N          12.7402   41.0517    8.5570 N.ar    1  UNL1       -0.2159
      8 C           8.6136   41.6496    7.8520 C.3     1  UNL1        0.0602
      9 C           8.3923   42.4091    6.5423 C.3     1  UNL1        0.0094
     10 C           6.8999   42.6175    6.2938 C.3     1  UNL1        0.0219
     11 C           6.2784   43.3777    7.4614 C.3     1  UNL1        0.0922
     12 C           7.9706   42.3960    9.0207 C.3     1  UNL1        0.0980
     13 N           6.5705   42.6764    8.7090 N.pl3   1  UNL1       -0.2928
     14 C           5.5079   42.2546    9.5798 C.ar    1  UNL1        0.1350
     15 C           5.7624   41.3933   10.6542 C.ar    1  UNL1        0.0550
     16 C           4.7004   41.0101   11.4713 C.ar    1  UNL1        0.1036
     17 C           3.2130   42.3060   10.1733 C.ar    1  UNL1        0.2001
     18 N           3.4483   41.4709   11.2182 N.ar    1  UNL1       -0.2223
     19 N           4.2355   42.6909    9.3654 N.ar    1  UNL1       -0.2090
     20 N          13.3053   41.9157    6.3539 N.pl3   1  UNL1       -0.2781
     21 H          13.2130   41.4785    5.4767 H       1  UNL1        0.1555
     22 C          14.3847   42.8414    6.5155 C.ar    1  UNL1        0.1642
     23 C          15.9672   44.7313    6.4048 C.ar    1  UNL1        0.0528
     24 C          16.2902   43.7105    7.2987 C.ar    1  UNL1        0.0678
     25 C          17.5153   43.7529    8.1388 C.3     1  UNL1        0.0527
     26 S          14.5173   44.2807    5.6716 S.2     1  UNL1       -0.0512
     27 N          15.4198   42.6674    7.3618 N.ar    1  UNL1       -0.2283
@<TRIPOS>BOND
     1    22    26   ar
     2    22    20    1
     3    23    26   ar
     4    24    27   ar
     5    25    24    1
     6     1     7   ar
     7     2     3   ar
     8     8     3    1
     9     8     9    1
    10     9    10    1
    11    10    11    1
    12    11    13    1
    13    14    19   ar
    14    15    16   ar
    15    17    18   ar
    16    12    13    1
    17    12     8    1
    18     4     6   ar
    19     5     4    1
    20    20     1    1
    21    13    14    1
    22    22    27   ar
    23    23    24   ar
    24     1     2   ar
    25     3     6   ar
    26    14    15   ar
    27    16    18   ar
    28    17    19   ar
    29     4     7   ar
    30    20    21    1
@<TRIPOS>MOLECULE
MolPort-046-956-540 MCULE-3347978788 PubChem-132765396
 27 30 0 0 0
SMALL
GASTEIGER

@<TRIPOS>ATOM
      1 C          12.9245   41.2871    8.4103 C.ar    1  UNL1        0.1361
      2 C          11.6676   41.7648    8.7796 C.ar    1  UNL1        0.0492
      3 C          11.1542   41.4033   10.0250 C.ar    1  UNL1        0.0644
      4 C          13.1035   40.1419   10.4745 C.ar    1  UNL1        0.1406
      5 C          13.8800   39.2649   11.3888 C.3     1  UNL1        0.0737
      6 N          11.8804   40.5991   10.8486 N.ar    1  UNL1       -0.2348
      7 N          13.6171   40.4855    9.2649 N.ar    1  UNL1       -0.2159
      8 C           9.8094   41.9020   10.4389 C.3     1  UNL1        0.0602
      9 C           9.4365   41.3679   11.8234 C.3     1  UNL1        0.0094
     10 C           8.0609   41.8841   12.2400 C.3     1  UNL1        0.0219
     11 C           7.0147   41.4692   11.2100 C.3     1  UNL1        0.0922
     12 C           8.7506   41.5092    9.4089 C.3     1  UNL1        0.0980
     13 N           7.4312   41.9205    9.8847 N.pl3   1  UNL1       -0.2928
     14 C           6.5773   42.7644    9.0949 C.ar    1  UNL1        0.1350
     15 C           7.0646   43.4025    7.9476 C.ar    1  UNL1        0.0550
     16 C           6.2001   44.2126    7.2137 C.ar    1  UNL1        0.1036
     17 C           4.4506   43.7471    8.7300 C.ar    1  UNL1        0.2001
     18 N           4.9126   44.3709    7.6155 N.ar    1  UNL1       -0.2223
     19 N           5.2784   42.9533    9.4587 N.ar    1  UNL1       -0.2090
     20 N          13.4628   41.6510    7.1347 N.pl3   1  UNL1       -0.2781
     21 H          13.1275   41.1638    6.3476 H       1  UNL1        0.1555
     22 C          14.4479   42.6642    6.9088 C.ar    1  UNL1        0.1642
     23 C          15.7447   44.6403    6.2006 C.ar    1  UNL1        0.0528
     24 C          16.3986   43.7480    7.0501 C.ar    1  UNL1        0.0678
     25 C          17.7956   43.9691    7.5059 C.3     1  UNL1        0.0527
     26 S          14.2021   44.0098    5.9442 S.2     1  UNL1       -0.0512
     27 N          15.6862   42.6577    7.4420 N.ar    1  UNL1       -0.2283
@<TRIPOS>BOND
     1    22    26   ar
     2    22    20    1
     3    23    26   ar
     4    24    27   ar
     5    25    24    1
     6     1     7   ar
     7     2     3   ar
     8     8     3    1
     9     8     9    1
    10     9    10    1
    11    10    11    1
    12    11    13    1
    13    14    19   ar
    14    15    16   ar
    15    17    18   ar
    16    12    13    1
    17    12     8    1
    18     4     6   ar
    19     5     4    1
    20    20     1    1
    21    13    14    1
    22    22    27   ar
    23    23    24   ar
    24     1     2   ar
    25     3     6   ar
    26    14    15   ar
    27    16    18   ar
    28    17    19   ar
    29     4     7   ar
    30    20    21    1
@<TRIPOS>MOLECULE
MolPort-046-956-540 MCULE-3347978788 PubChem-132765396
 27 30 0 0 0
SMALL
GASTEIGER

@<TRIPOS>ATOM
      1 C           8.3071   40.2061    5.8654 C.ar    1  UNL1        0.1361
      2 C           9.5233   40.5162    6.4727 C.ar    1  UNL1        0.0492
      3 C          10.7010   40.0542    5.8855 C.ar    1  UNL1        0.0644
      4 C           9.4506   39.0227    4.1634 C.ar    1  UNL1        0.1406
      5 C           9.4098   38.2158    2.9164 C.3     1  UNL1        0.0737
      6 N          10.6433   39.3164    4.7433 N.ar    1  UNL1       -0.2348
      7 N           8.2950   39.4658    4.7233 N.ar    1  UNL1       -0.2159
      8 C          12.0137   40.3730    6.5208 C.3     1  UNL1        0.0602
      9 C          12.1846   39.5977    7.8289 C.3     1  UNL1        0.0094
     10 C          13.5303   39.9280    8.4711 C.3     1  UNL1        0.0219
     11 C          13.6323   41.4289    8.7249 C.3     1  UNL1        0.0922
     12 C          12.1400   41.8762    6.7673 C.3     1  UNL1        0.0980
     13 N          13.3869   42.1506    7.4788 N.pl3   1  UNL1       -0.2928
     14 C          14.3582   43.0756    6.9631 C.ar    1  UNL1        0.1350
     15 C          15.7133   42.9479    7.2922 C.ar    1  UNL1        0.0550
     16 C          16.6191   43.8692    6.7695 C.ar    1  UNL1        0.1036
     17 C          14.8647   44.9807    5.6456 C.ar    1  UNL1        0.2001
     18 N          16.1814   44.8664    5.9582 N.ar    1  UNL1       -0.2223
     19 N          13.9664   44.0921    6.1455 N.ar    1  UNL1       -0.2090
     20 N           7.0910   40.6744    6.4580 N.pl3   1  UNL1       -0.2781
     21 H           6.3080   40.7672    5.8685 H       1  UNL1        0.1555
     22 C           6.9192   41.0190    7.8364 C.ar    1  UNL1        0.1642
     23 C           7.1753   41.7124   10.1905 C.ar    1  UNL1        0.0528
     24 C           5.8873   41.3561    9.7911 C.ar    1  UNL1        0.0678
     25 C           4.7318   41.3901   10.7250 C.3     1  UNL1        0.0527
     26 S           8.1613   41.5305    8.8349 S.2     1  UNL1       -0.0512
     27 N           5.7431   40.9733    8.4940 N.ar    1  UNL1       -0.2283
@<TRIPOS>BOND
     1    22    26   ar
     2    22    20    1
     3    23    26   ar
     4    24    27   ar
     5    25    24    1
     6     1     7   ar
     7     2     3   ar
     8     8     3    1
     9     8     9    1
    10     9    10    1
    11    10    11    1
    12    11    13    1
    13    14    19   ar
    14    15    16   ar
    15    17    18   ar
    16    12    13    1
    17    12     8    1
    18     4     6   ar
    19     5     4    1
    20    20     1    1
    21    13    14    1
    22    22    27   ar
    23    23    24   ar
    24     1     2   ar
    25     3     6   ar
    26    14    15   ar
    27    16    18   ar
    28    17    19   ar
    29     4     7   ar
    30    20    21    1
@<TRIPOS>MOLECULE
MolPort-046-956-540 MCULE-3347978788 PubChem-132765396
 27 30 0 0 0
SMALL
GASTEIGER

@<TRIPOS>ATOM
      1 C           7.4383   41.7199   10.9606 C.ar    1  UNL1        0.1361
      2 C           8.4018   41.3503   10.0228 C.ar    1  UNL1        0.0492
      3 C           9.6570   40.9464   10.4773 C.ar    1  UNL1        0.0644
      4 C           8.9676   41.2836   12.7143 C.ar    1  UNL1        0.1406
      5 C           9.2720   41.2485   14.1682 C.3     1  UNL1        0.0737
      6 N           9.9169   40.9208   11.8130 N.ar    1  UNL1       -0.2348
      7 N           7.7403   41.6791   12.2871 N.ar    1  UNL1       -0.2159
      8 C          10.7036   40.5489    9.4899 C.3     1  UNL1        0.0602
      9 C          10.9854   39.0473    9.5745 C.3     1  UNL1        0.0094
     10 C          12.0553   38.6488    8.5602 C.3     1  UNL1        0.0219
     11 C          13.3326   39.4448    8.8101 C.3     1  UNL1        0.0922
     12 C          11.9862   41.3492    9.7152 C.3     1  UNL1        0.0980
     13 N          13.0248   40.8727    8.8040 N.pl3   1  UNL1       -0.2928
     14 C          13.7055   41.7662    7.9076 C.ar    1  UNL1        0.1350
     15 C          15.0933   41.9365    7.9838 C.ar    1  UNL1        0.0550
     16 C          15.7101   42.8146    7.0945 C.ar    1  UNL1        0.1036
     17 C          13.6212   43.3125    6.1122 C.ar    1  UNL1        0.2001
     18 N          14.9667   43.4854    6.1772 N.ar    1  UNL1       -0.2223
     19 N          13.0017   42.4607    6.9708 N.ar    1  UNL1       -0.2090
     20 N           6.1460   42.1364   10.5071 N.pl3   1  UNL1       -0.2781
     21 H           5.3672   41.8460   11.0347 H       1  UNL1        0.1555
     22 C           5.8922   42.9398    9.3503 C.ar    1  UNL1        0.1642
     23 C           5.9542   44.1295    7.1895 C.ar    1  UNL1        0.0528
     24 C           4.8220   44.3417    7.9758 C.ar    1  UNL1        0.0678
     25 C           3.7136   45.2318    7.5428 C.3     1  UNL1        0.0527
     26 S           6.9401   43.0674    8.0513 S.2     1  UNL1       -0.0512
     27 N           4.7851   43.6873    9.1676 N.ar    1  UNL1       -0.2283
@<TRIPOS>BOND
     1    22    26   ar
     2    22    20    1
     3    23    26   ar
     4    24    27   ar
     5    25    24    1
     6     1     7   ar
     7     2     3   ar
     8     8     3    1
     9     8     9    1
    10     9    10    1
    11    10    11    1
    12    11    13    1
    13    14    19   ar
    14    15    16   ar
    15    17    18   ar
    16    12    13    1
    17    12     8    1
    18     4     6   ar
    19     5     4    1
    20    20     1    1
    21    13    14    1
    22    22    27   ar
    23    23    24   ar
    24     1     2   ar
    25     3     6   ar
    26    14    15   ar
    27    16    18   ar
    28    17    19   ar
    29     4     7   ar
    30    20    21    1
@<TRIPOS>MOLECULE
MolPort-046-956-540 MCULE-3347978788 PubChem-132765396
 27 30 0 0 0
SMALL
GASTEIGER

@<TRIPOS>ATOM
      1 C          12.4572   42.1495    6.4133 C.ar    1  UNL1        0.1361
      2 C          12.6683   41.1321    7.3431 C.ar    1  UNL1        0.0492
      3 C          13.9052   41.0572    7.9833 C.ar    1  UNL1        0.0644
      4 C          14.6528   42.9535    6.7840 C.ar    1  UNL1        0.1406
      5 C          15.7239   43.9377    6.4807 C.3     1  UNL1        0.0737
      6 N          14.8738   41.9679    7.6921 N.ar    1  UNL1       -0.2348
      7 N          13.4533   43.0397    6.1525 N.ar    1  UNL1       -0.2159
      8 C          14.1527   39.9743    8.9804 C.3     1  UNL1        0.0602
      9 C          13.2985   40.1855   10.2323 C.3     1  UNL1        0.0094
     10 C          13.5562   39.0726   11.2461 C.3     1  UNL1        0.0219
     11 C          15.0367   39.0338   11.6122 C.3     1  UNL1        0.0922
     12 C          15.6353   39.9100    9.3467 C.3     1  UNL1        0.0980
     13 N          15.8357   38.9120   10.3955 N.pl3   1  UNL1       -0.2928
     14 C          16.7638   37.8271   10.2326 C.ar    1  UNL1        0.1350
     15 C          17.8274   37.6547   11.1271 C.ar    1  UNL1        0.0550
     16 C          18.7031   36.5889   10.9288 C.ar    1  UNL1        0.1036
     17 C          17.4813   35.9187    9.0223 C.ar    1  UNL1        0.2001
     18 N          18.5164   35.7420    9.8838 N.ar    1  UNL1       -0.2223
     19 N          16.6169   36.9520    9.1992 N.ar    1  UNL1       -0.2090
     20 N          11.1920   42.2374    5.7494 N.pl3   1  UNL1       -0.2781
     21 H          10.8615   43.1372    5.5249 H       1  UNL1        0.1555
     22 C          10.3677   41.1257    5.3849 C.ar    1  UNL1        0.1642
     23 C           8.6524   39.3607    5.2103 C.ar    1  UNL1        0.0528
     24 C           9.6406   39.3571    4.2261 C.ar    1  UNL1        0.0678
     25 C           9.6644   38.3510    3.1326 C.3     1  UNL1        0.0527
     26 S           9.0051   40.6529    6.2342 S.2     1  UNL1       -0.0512
     27 N          10.5875   40.3289    4.3197 N.ar    1  UNL1       -0.2283
@<TRIPOS>BOND
     1    22    26   ar
     2    22    20    1
     3    23    26   ar
     4    24    27   ar
     5    25    24    1
     6     1     7   ar
     7     2     3   ar
     8     8     3    1
     9     8     9    1
    10     9    10    1
    11    10    11    1
    12    11    13    1
    13    14    19   ar
    14    15    16   ar
    15    17    18   ar
    16    12    13    1
    17    12     8    1
    18     4     6   ar
    19     5     4    1
    20    20     1    1
    21    13    14    1
    22    22    27   ar
    23    23    24   ar
    24     1     2   ar
    25     3     6   ar
    26    14    15   ar
    27    16    18   ar
    28    17    19   ar
    29     4     7   ar
    30    20    21    1
@<TRIPOS>MOLECULE
MolPort-046-956-540 MCULE-3347978788 PubChem-132765396
 27 30 0 0 0
SMALL
GASTEIGER

@<TRIPOS>ATOM
      1 C           7.7069   42.7778    9.8254 C.ar    1  UNL1        0.1361
      2 C           8.5452   42.7604    8.7113 C.ar    1  UNL1        0.0492
      3 C           9.8415   42.2669    8.8573 C.ar    1  UNL1        0.0644
      4 C           9.4325   41.8399   11.1472 C.ar    1  UNL1        0.1406
      5 C           9.9105   41.3434   12.4636 C.3     1  UNL1        0.0737
      6 N          10.2611   41.8166   10.0712 N.ar    1  UNL1       -0.2348
      7 N           8.1671   42.3173   11.0207 N.ar    1  UNL1       -0.2159
      8 C          10.7559   42.2415    7.6777 C.3     1  UNL1        0.0602
      9 C          10.4580   41.0331    6.7876 C.3     1  UNL1        0.0094
     10 C          11.3961   41.0158    5.5826 C.3     1  UNL1        0.0219
     11 C          12.8473   40.9859    6.0524 C.3     1  UNL1        0.0922
     12 C          12.2158   42.2281    8.1301 C.3     1  UNL1        0.0980
     13 N          13.0868   42.1025    6.9631 N.pl3   1  UNL1       -0.2928
     14 C          14.1277   43.0567    6.6963 C.ar    1  UNL1        0.1350
     15 C          15.4199   42.8661    7.2011 C.ar    1  UNL1        0.0550
     16 C          16.3968   43.8188    6.9176 C.ar    1  UNL1        0.1036
     17 C          14.8303   45.0807    5.6806 C.ar    1  UNL1        0.2001
     18 N          16.0870   44.9060    6.1651 N.ar    1  UNL1       -0.2223
     19 N          13.8642   44.1628    5.9463 N.ar    1  UNL1       -0.2090
     20 N           6.3740   43.2818    9.6887 N.pl3   1  UNL1       -0.2781
     21 H           6.2726   44.2196    9.4067 H       1  UNL1        0.1555
     22 C           5.1766   42.5354    9.9281 C.ar    1  UNL1        0.1642
     23 C           2.8817   41.6319   10.0009 C.ar    1  UNL1        0.0528
     24 C           3.8369   40.9451   10.7500 C.ar    1  UNL1        0.0678
     25 C           3.4982   39.7381   11.5481 C.3     1  UNL1        0.0527
     26 S           3.6878   42.9173    9.2655 S.2     1  UNL1       -0.0512
     27 N           5.1028   41.4409   10.7119 N.ar    1  UNL1       -0.2283
@<TRIPOS>BOND
     1    22    26   ar
     2    22    20    1
     3    23    26   ar
     4    24    27   ar
     5    25    24    1
     6     1     7   ar
     7     2     3   ar
     8     8     3    1
     9     8     9    1
    10     9    10    1
    11    10    11    1
    12    11    13    1
    13    14    19   ar
    14    15    16   ar
    15    17    18   ar
    16    12    13    1
    17    12     8    1
    18     4     6   ar
    19     5     4    1
    20    20     1    1
    21    13    14    1
    22    22    27   ar
    23    23    24   ar
    24     1     2   ar
    25     3     6   ar
    26    14    15   ar
    27    16    18   ar
    28    17    19   ar
    29     4     7   ar
    30    20    21    1
@<TRIPOS>MOLECULE
MolPort-046-956-540 MCULE-3347978788 PubChem-132765396
 27 30 0 0 0
SMALL
GASTEIGER

@<TRIPOS>ATOM
      1 C           7.6670   41.7435   11.0920 C.ar    1  UNL1        0.1361
      2 C           8.7859   41.7966   10.2616 C.ar    1  UNL1        0.0492
      3 C          10.0453   41.5834   10.8219 C.ar    1  UNL1        0.0644
      4 C           9.0592   41.2821   12.9503 C.ar    1  UNL1        0.1406
      5 C           9.2054   41.0047   14.4027 C.3     1  UNL1        0.0737
      6 N          10.1589   41.3308   12.1545 N.ar    1  UNL1       -0.2348
      7 N           7.8259   41.4874   12.4193 N.ar    1  UNL1       -0.2159
      8 C          11.2564   41.6382    9.9510 C.3     1  UNL1        0.0602
      9 C          10.8645   41.8940    8.4942 C.3     1  UNL1        0.0094
     10 C          12.1089   41.9506    7.6106 C.3     1  UNL1        0.0219
     11 C          12.8924   40.6469    7.7299 C.3     1  UNL1        0.0922
     12 C          12.0630   40.3454   10.0709 C.3     1  UNL1        0.0980
     13 N          13.1861   40.3829    9.1363 N.pl3   1  UNL1       -0.2928
     14 C          14.5399   40.1967    9.5807 C.ar    1  UNL1        0.1350
     15 C          14.8346   39.3140   10.6272 C.ar    1  UNL1        0.0550
     16 C          16.1621   39.1667   11.0252 C.ar    1  UNL1        0.1036
     17 C          16.8431   40.7254    9.3872 C.ar    1  UNL1        0.2001
     18 N          17.1404   39.8721   10.4012 N.ar    1  UNL1       -0.2223
     19 N          15.5547   40.8826    8.9850 N.ar    1  UNL1       -0.2090
     20 N           6.3687   41.9605   10.5292 N.pl3   1  UNL1       -0.2781
     21 H           5.6035   41.5404   10.9843 H       1  UNL1        0.1555
     22 C           6.0910   42.7375    9.3599 C.ar    1  UNL1        0.1642
     23 C           6.0761   43.8289    7.1470 C.ar    1  UNL1        0.0528
     24 C           5.0388   44.1779    8.0117 C.ar    1  UNL1        0.0678
     25 C           3.9825   45.1503    7.6281 C.3     1  UNL1        0.0527
     26 S           7.0316   42.7140    7.9756 S.2     1  UNL1       -0.0512
     27 N           5.0445   43.5779    9.2322 N.ar    1  UNL1       -0.2283
@<TRIPOS>BOND
     1    22    26   ar
     2    22    20    1
     3    23    26   ar
     4    24    27   ar
     5    25    24    1
     6     1     7   ar
     7     2     3   ar
     8     8     3    1
     9     8     9    1
    10     9    10    1
    11    10    11    1
    12    11    13    1
    13    14    19   ar
    14    15    16   ar
    15    17    18   ar
    16    12    13    1
    17    12     8    1
    18     4     6   ar
    19     5     4    1
    20    20     1    1
    21    13    14    1
    22    22    27   ar
    23    23    24   ar
    24     1     2   ar
    25     3     6   ar
    26    14    15   ar
    27    16    18   ar
    28    17    19   ar
    29     4     7   ar
    30    20    21    1
@<TRIPOS>MOLECULE
MolPort-046-956-540 MCULE-3347978788 PubChem-132765396
 27 30 0 0 0
SMALL
GASTEIGER

@<TRIPOS>ATOM
      1 C           8.0396   41.9325   10.9577 C.ar    1  UNL1        0.1361
      2 C           9.1891   41.5164   10.2871 C.ar    1  UNL1        0.0492
      3 C          10.2460   40.9941   11.0323 C.ar    1  UNL1        0.0644
      4 C           9.0119   41.3108   13.0247 C.ar    1  UNL1        0.1406
      5 C           8.9150   41.2008   14.5033 C.3     1  UNL1        0.0737
      6 N          10.1385   40.9014   12.3859 N.ar    1  UNL1       -0.2348
      7 N           7.9739   41.8214   12.3126 N.ar    1  UNL1       -0.2159
      8 C          11.4866   40.5450   10.3342 C.3     1  UNL1        0.0602
      9 C          11.9465   41.5936    9.3191 C.3     1  UNL1        0.0094
     10 C          13.2168   41.1274    8.6110 C.3     1  UNL1        0.0219
     11 C          12.9672   39.7907    7.9193 C.3     1  UNL1        0.0922
     12 C          11.2594   39.1978    9.6487 C.3     1  UNL1        0.0980
     13 N          12.4535   38.8286    8.8910 N.pl3   1  UNL1       -0.2928
     14 C          13.1237   37.5762    9.1083 C.ar    1  UNL1        0.1350
     15 C          12.5514   36.5897    9.9209 C.ar    1  UNL1        0.0550
     16 C          13.2386   35.3911   10.1038 C.ar    1  UNL1        0.1036
     17 C          14.9849   36.1614    8.7134 C.ar    1  UNL1        0.2001
     18 N          14.4392   35.1977    9.4995 N.ar    1  UNL1       -0.2223
     19 N          14.3301   37.3367    8.5230 N.ar    1  UNL1       -0.2090
     20 N           6.9475   42.4703   10.2043 N.pl3   1  UNL1       -0.2781
     21 H           7.1483   43.2040    9.5793 H       1  UNL1        0.1555
     22 C           5.5882   42.0299   10.2844 C.ar    1  UNL1        0.1642
     23 C           3.3597   41.0330    9.9269 C.ar    1  UNL1        0.0528
     24 C           3.5270   41.7573   11.1069 C.ar    1  UNL1        0.0678
     25 C           2.4301   41.9227   12.0959 C.3     1  UNL1        0.0527
     26 S           4.8349   41.1013    9.1133 S.2     1  UNL1       -0.0512
     27 N           4.7544   42.3081   11.3067 N.ar    1  UNL1       -0.2283
@<TRIPOS>BOND
     1    22    26   ar
     2    22    20    1
     3    23    26   ar
     4    24    27   ar
     5    25    24    1
     6     1     7   ar
     7     2     3   ar
     8     8     3    1
     9     8     9    1
    10     9    10    1
    11    10    11    1
    12    11    13    1
    13    14    19   ar
    14    15    16   ar
    15    17    18   ar
    16    12    13    1
    17    12     8    1
    18     4     6   ar
    19     5     4    1
    20    20     1    1
    21    13    14    1
    22    22    27   ar
    23    23    24   ar
    24     1     2   ar
    25     3     6   ar
    26    14    15   ar
    27    16    18   ar
    28    17    19   ar
    29     4     7   ar
    30    20    21    1
@<TRIPOS>MOLECULE
MolPort-046-956-540 MCULE-3347978788 PubChem-132765396
 27 30 0 0 0
SMALL
GASTEIGER

@<TRIPOS>ATOM
      1 C          15.9090   41.6213    8.3973 C.ar    1  UNL1        0.1361
      2 C          14.6113   41.1184    8.4825 C.ar    1  UNL1        0.0492
      3 C          13.6084   41.7237    7.7254 C.ar    1  UNL1        0.0644
      4 C          15.1797   43.2612    6.8535 C.ar    1  UNL1        0.1406
      5 C          15.4881   44.4187    5.9744 C.3     1  UNL1        0.0737
      6 N          13.9105   42.7830    6.9260 N.ar    1  UNL1       -0.2348
      7 N          16.1673   42.6822    7.5847 N.ar    1  UNL1       -0.2159
      8 C          12.2119   41.2024    7.8039 C.3     1  UNL1        0.0602
      9 C          12.1894   39.6840    7.6157 C.3     1  UNL1        0.0094
     10 C          10.7578   39.1587    7.6994 C.3     1  UNL1        0.0219
     11 C           9.8907   39.8386    6.6442 C.3     1  UNL1        0.0922
     12 C          11.3244   41.8854    6.7636 C.3     1  UNL1        0.0980
     13 N           9.9907   41.2883    6.7929 N.pl3   1  UNL1       -0.2928
     14 C           8.8134   42.0885    6.9902 C.ar    1  UNL1        0.1350
     15 C           8.5585   42.6938    8.2269 C.ar    1  UNL1        0.0550
     16 C           7.4034   43.4599    8.3721 C.ar    1  UNL1        0.1036
     17 C           6.8079   43.0160    6.1305 C.ar    1  UNL1        0.2001
     18 N           6.5506   43.6076    7.3257 N.ar    1  UNL1       -0.2223
     19 N           7.9289   42.2652    5.9695 N.ar    1  UNL1       -0.2090
     20 N          16.9474   41.0089    9.1693 N.pl3   1  UNL1       -0.2781
     21 H          17.8312   41.4426    9.1616 H       1  UNL1        0.1555
     22 C          16.8073   39.8186    9.9514 C.ar    1  UNL1        0.1642
     23 C          17.1244   37.7429   11.2471 C.ar    1  UNL1        0.0528
     24 C          15.8102   38.1916   11.1168 C.ar    1  UNL1        0.0678
     25 C          14.6629   37.4658   11.7213 C.3     1  UNL1        0.0527
     26 S          18.0896   38.8502   10.4195 S.2     1  UNL1       -0.0512
     27 N          15.6323   39.3355   10.4030 N.ar    1  UNL1       -0.2283
@<TRIPOS>BOND
     1    22    26   ar
     2    22    20    1
     3    23    26   ar
     4    24    27   ar
     5    25    24    1
     6     1     7   ar
     7     2     3   ar
     8     8     3    1
     9     8     9    1
    10     9    10    1
    11    10    11    1
    12    11    13    1
    13    14    19   ar
    14    15    16   ar
    15    17    18   ar
    16    12    13    1
    17    12     8    1
    18     4     6   ar
    19     5     4    1
    20    20     1    1
    21    13    14    1
    22    22    27   ar
    23    23    24   ar
    24     1     2   ar
    25     3     6   ar
    26    14    15   ar
    27    16    18   ar
    28    17    19   ar
    29     4     7   ar
    30    20    21    1
@<TRIPOS>MOLECULE
MolPort-046-956-540 MCULE-3347978788 PubChem-132765396
 27 30 0 0 0
SMALL
GASTEIGER

@<TRIPOS>ATOM
      1 C          12.3191   42.0288    6.7081 C.ar    1  UNL1        0.1361
      2 C          12.6758   41.0018    7.5812 C.ar    1  UNL1        0.0492
      3 C          13.9707   40.9838    8.0991 C.ar    1  UNL1        0.0644
      4 C          14.4912   42.9517    6.8952 C.ar    1  UNL1        0.1406
      5 C          15.4707   44.0053    6.5235 C.3     1  UNL1        0.0737
      6 N          14.8538   41.9576    7.7468 N.ar    1  UNL1       -0.2348
      7 N          13.2336   42.9829    6.3827 N.ar    1  UNL1       -0.2159
      8 C          14.3737   39.8918    9.0337 C.3     1  UNL1        0.0602
      9 C          13.2682   39.6184   10.0557 C.3     1  UNL1        0.0094
     10 C          13.6875   38.4990   11.0063 C.3     1  UNL1        0.0219
     11 C          14.9855   38.8755   11.7142 C.3     1  UNL1        0.0922
     12 C          15.6823   40.2451    9.7401 C.3     1  UNL1        0.0980
     13 N          16.0025   39.2093   10.7203 N.pl3   1  UNL1       -0.2928
     14 C          17.2613   38.5164   10.6972 C.ar    1  UNL1        0.1350
     15 C          18.4041   39.1260   10.1650 C.ar    1  UNL1        0.0550
     16 C          19.6027   38.4150   10.1626 C.ar    1  UNL1        0.1036
     17 C          18.5318   36.5746   11.1836 C.ar    1  UNL1        0.2001
     18 N          19.6465   37.1561   10.6699 N.ar    1  UNL1       -0.2223
     19 N          17.3538   37.2519   11.1947 N.ar    1  UNL1       -0.2090
     20 N          10.9931   42.0587    6.1696 N.pl3   1  UNL1       -0.2781
     21 H          10.8918   42.3513    5.2350 H       1  UNL1        0.1555
     22 C           9.8024   41.6984    6.8771 C.ar    1  UNL1        0.1642
     23 C           7.6203   40.8157    7.6170 C.ar    1  UNL1        0.0528
     24 C           8.3265   41.5721    8.5520 C.ar    1  UNL1        0.0678
     25 C           7.8005   41.8348    9.9169 C.3     1  UNL1        0.0527
     26 S           8.5707   40.7714    6.2251 S.2     1  UNL1       -0.0512
     27 N           9.5297   42.0601    8.1470 N.ar    1  UNL1       -0.2283
@<TRIPOS>BOND
     1    22    26   ar
     2    22    20    1
     3    23    26   ar
     4    24    27   ar
     5    25    24    1
     6     1     7   ar
     7     2     3   ar
     8     8     3    1
     9     8     9    1
    10     9    10    1
    11    10    11    1
    12    11    13    1
    13    14    19   ar
    14    15    16   ar
    15    17    18   ar
    16    12    13    1
    17    12     8    1
    18     4     6   ar
    19     5     4    1
    20    20     1    1
    21    13    14    1
    22    22    27   ar
    23    23    24   ar
    24     1     2   ar
    25     3     6   ar
    26    14    15   ar
    27    16    18   ar
    28    17    19   ar
    29     4     7   ar
    30    20    21    1
