@<TRIPOS>MOLECULE
MolPort-002-934-394 2970832 CHEMBL1719021 CSSS00132393515 ChemDiv-3784-0050 LN00924109 MCULE-9483770580 PubChem-3855458 ZINC000002970832 ZINC02970832
 23 24 0 0 0
SMALL
GASTEIGER

@<TRIPOS>ATOM
      1 C          11.9594   41.7998    8.9435 C.2     1  UNL1        0.2376
      2 O          11.7317   43.0361    9.0188 O.2     1  UNL1       -0.2738
      3 N          11.0511   40.8402    9.4997 N.am    1  UNL1       -0.2831
      4 H          11.2902   39.8914    9.3909 H       1  UNL1        0.1549
      5 C           7.4660   41.6803   10.0923 C.ar    1  UNL1        0.1398
      6 C           7.4064   41.6706   11.4948 C.ar    1  UNL1        0.0370
      7 C           8.5498   41.3870   12.2451 C.ar    1  UNL1        0.0044
      8 C           9.7575   41.1122   11.5991 C.ar    1  UNL1        0.0149
      9 C           9.8303   41.1197   10.1980 C.ar    1  UNL1        0.0534
     10 C           8.6798   41.4040    9.4544 C.ar    1  UNL1        0.0515
     11 O           6.3409   41.9609    9.3124 O.3     1  UNL1       -0.4754
     12 C           5.1355   42.4806    9.8604 C.3     1  UNL1        0.2054
     13 C           3.9314   41.8363    9.1913 C.3     1  UNL1        0.0473
     14 C           3.9702   40.2694   11.1349 C.3     1  UNL1        0.0001
     15 C           3.0871   41.0708   10.1974 C.3     1  UNL1        0.0038
     16 C          13.2060   41.3273    8.2809 C.3     1  UNL1        0.1501
     17 S          13.4498   42.1925    6.6991 S.3     1  UNL1       -0.0675
     18 C          15.0767   42.7907    7.1591 C.ar    1  UNL1        0.1718
     19 C          17.0062   42.8965    8.0600 C.ar    1  UNL1        0.1197
     20 C          16.8269   44.0320    7.2864 C.ar    1  UNL1        0.0984
     21 C          15.0062   44.9201    5.8385 C.3     1  UNL1        0.1325
     22 N          15.9050   42.1175    7.9771 N.ar    1  UNL1       -0.2195
     23 N          15.6100   43.9444    6.7289 N.ar    1  UNL1       -0.3033
@<TRIPOS>BOND
     1    14    15    1
     2    15    13    1
     3    13    12    1
     4    12    11    1
     5     5    11    1
     6     6     7   ar
     7     8     9   ar
     8     9     3    1
     9    16     1    1
    10    16    17    1
    11    18    17    1
    12    19    22   ar
    13    20    23   ar
    14    21    23    1
    15    10     5   ar
    16     3     1   am
    17    23    18   ar
    18     5     6   ar
    19     7     8   ar
    20     9    10   ar
    21     1     2    2
    22    18    22   ar
    23    19    20   ar
    24     3     4    1
@<TRIPOS>MOLECULE
MolPort-002-934-394 2970832 CHEMBL1719021 CSSS00132393515 ChemDiv-3784-0050 LN00924109 MCULE-9483770580 PubChem-3855458 ZINC000002970832 ZINC02970832
 23 24 0 0 0
SMALL
GASTEIGER

@<TRIPOS>ATOM
      1 C          11.2771   41.9682    8.6570 C.2     1  UNL1        0.2376
      2 O          10.5650   41.3216    7.8440 O.2     1  UNL1       -0.2738
      3 N          10.7975   42.2998    9.9667 N.am    1  UNL1       -0.2831
      4 H          11.4157   42.7959   10.5506 H       1  UNL1        0.1549
      5 C           7.1049   41.8266   10.1914 C.ar    1  UNL1        0.1398
      6 C           6.9621   41.3788   11.5142 C.ar    1  UNL1        0.0370
      7 C           8.0848   41.2333   12.3323 C.ar    1  UNL1        0.0044
      8 C           9.3545   41.5342   11.8339 C.ar    1  UNL1        0.0149
      9 C           9.5105   41.9834   10.5140 C.ar    1  UNL1        0.0534
     10 C           8.3805   42.1255    9.7014 C.ar    1  UNL1        0.0515
     11 O           6.0024   41.9836    9.3473 O.3     1  UNL1       -0.4754
     12 C           4.8765   41.1151    9.3832 C.3     1  UNL1        0.2054
     13 C           3.5895   41.9145    9.2514 C.3     1  UNL1        0.0473
     14 C           3.7243   44.2359    8.3417 C.3     1  UNL1        0.0001
     15 C           3.8146   43.3793    9.5903 C.3     1  UNL1        0.0038
     16 C          12.6359   42.4131    8.2421 C.3     1  UNL1        0.1501
     17 S          12.8974   42.0837    6.4720 S.3     1  UNL1       -0.0675
     18 C          14.1374   43.3693    6.3105 C.ar    1  UNL1        0.1718
     19 C          15.1026   45.1782    5.7257 C.ar    1  UNL1        0.1197
     20 C          15.9695   44.4692    6.5417 C.ar    1  UNL1        0.0984
     21 C          15.8834   42.2954    7.7532 C.3     1  UNL1        0.1325
     22 N          13.9513   44.4850    5.5832 N.ar    1  UNL1       -0.2195
     23 N          15.3430   43.3380    6.8985 N.ar    1  UNL1       -0.3033
@<TRIPOS>BOND
     1    14    15    1
     2    15    13    1
     3    13    12    1
     4    12    11    1
     5     5    11    1
     6     6     7   ar
     7     8     9   ar
     8     9     3    1
     9    16     1    1
    10    16    17    1
    11    18    17    1
    12    19    22   ar
    13    20    23   ar
    14    21    23    1
    15    10     5   ar
    16     3     1   am
    17    23    18   ar
    18     5     6   ar
    19     7     8   ar
    20     9    10   ar
    21     1     2    2
    22    18    22   ar
    23    19    20   ar
    24     3     4    1
@<TRIPOS>MOLECULE
MolPort-002-934-394 2970832 CHEMBL1719021 CSSS00132393515 ChemDiv-3784-0050 LN00924109 MCULE-9483770580 PubChem-3855458 ZINC000002970832 ZINC02970832
 23 24 0 0 0
SMALL
GASTEIGER

@<TRIPOS>ATOM
      1 C          10.9231   41.8975    8.5891 C.2     1  UNL1        0.2376
      2 O          10.1575   42.8019    9.0157 O.2     1  UNL1       -0.2738
      3 N          10.4196   40.7969    7.8209 N.am    1  UNL1       -0.2831
      4 H          11.0801   40.1357    7.5114 H       1  UNL1        0.1549
      5 C           6.6935   40.9247    7.9192 C.ar    1  UNL1        0.1398
      6 C           6.3590   40.1430    6.8022 C.ar    1  UNL1        0.0370
      7 C           7.3635   39.5732    6.0165 C.ar    1  UNL1        0.0044
      8 C           8.7058   39.7810    6.3423 C.ar    1  UNL1        0.0149
      9 C           9.0532   40.5596    7.4566 C.ar    1  UNL1        0.0534
     10 C           8.0404   41.1270    8.2375 C.ar    1  UNL1        0.0515
     11 O           5.7130   41.5081    8.7261 O.3     1  UNL1       -0.4754
     12 C           5.9546   41.8914   10.0744 C.3     1  UNL1        0.2054
     13 C           5.1224   41.0410   11.0215 C.3     1  UNL1        0.0473
     14 C           2.8053   41.8896   10.6404 C.3     1  UNL1        0.0001
     15 C           3.7586   40.7293   10.4265 C.3     1  UNL1        0.0038
     16 C          12.3763   41.9633    8.9058 C.3     1  UNL1        0.1501
     17 S          13.3267   40.9458    7.7345 S.3     1  UNL1       -0.0675
     18 C          14.1724   42.3623    7.0310 C.ar    1  UNL1        0.1718
     19 C          14.5571   44.1117    5.8746 C.ar    1  UNL1        0.1197
     20 C          15.6954   43.8190    6.6087 C.ar    1  UNL1        0.0984
     21 C          16.3451   42.0565    8.2431 C.3     1  UNL1        0.1325
     22 N          13.6010   43.1950    6.1430 N.ar    1  UNL1       -0.2195
     23 N          15.4314   42.7184    7.3285 N.ar    1  UNL1       -0.3033
@<TRIPOS>BOND
     1    14    15    1
     2    15    13    1
     3    13    12    1
     4    12    11    1
     5     5    11    1
     6     6     7   ar
     7     8     9   ar
     8     9     3    1
     9    16     1    1
    10    16    17    1
    11    18    17    1
    12    19    22   ar
    13    20    23   ar
    14    21    23    1
    15    10     5   ar
    16     3     1   am
    17    23    18   ar
    18     5     6   ar
    19     7     8   ar
    20     9    10   ar
    21     1     2    2
    22    18    22   ar
    23    19    20   ar
    24     3     4    1
@<TRIPOS>MOLECULE
MolPort-002-934-394 2970832 CHEMBL1719021 CSSS00132393515 ChemDiv-3784-0050 LN00924109 MCULE-9483770580 PubChem-3855458 ZINC000002970832 ZINC02970832
 23 24 0 0 0
SMALL
GASTEIGER

@<TRIPOS>ATOM
      1 C           9.8939   43.0664    9.6797 C.2     1  UNL1        0.2376
      2 O          10.6286   43.8890   10.2876 O.2     1  UNL1       -0.2738
      3 N          10.4446   41.9084    9.0388 N.am    1  UNL1       -0.2831
      4 H           9.8066   41.3045    8.5943 H       1  UNL1        0.1549
      5 C          13.9824   41.7525    7.8686 C.ar    1  UNL1        0.1398
      6 C          14.5445   40.8656    8.8003 C.ar    1  UNL1        0.0370
      7 C          13.7556   40.3186    9.8149 C.ar    1  UNL1        0.0044
      8 C          12.4026   40.6541    9.9037 C.ar    1  UNL1        0.0149
      9 C          11.8287   41.5387    8.9782 C.ar    1  UNL1        0.0534
     10 C          12.6266   42.0824    7.9657 C.ar    1  UNL1        0.0515
     11 O          14.7437   42.3166    6.8414 O.3     1  UNL1       -0.4754
     12 C          14.2001   43.2246    5.8910 C.3     1  UNL1        0.2054
     13 C          14.9954   44.5208    5.8854 C.3     1  UNL1        0.0473
     14 C          17.4054   43.9003    5.6817 C.3     1  UNL1        0.0001
     15 C          16.3126   44.3611    6.6274 C.3     1  UNL1        0.0038
     16 C           8.4273   43.3124    9.6094 C.3     1  UNL1        0.1501
     17 S           7.5322   41.7448    9.3817 S.3     1  UNL1       -0.0675
     18 C           5.9475   42.5600    9.1803 C.ar    1  UNL1        0.1718
     19 C           4.4695   43.9765    8.5845 C.ar    1  UNL1        0.1197
     20 C           3.8430   42.9771    9.3116 C.ar    1  UNL1        0.0984
     21 C           4.5783   40.8894   10.4523 C.3     1  UNL1        0.1325
     22 N           5.7921   43.7110    8.5025 N.ar    1  UNL1       -0.2195
     23 N           4.7888   42.0978    9.6745 N.ar    1  UNL1       -0.3033
@<TRIPOS>BOND
     1    14    15    1
     2    15    13    1
     3    13    12    1
     4    12    11    1
     5     5    11    1
     6     6     7   ar
     7     8     9   ar
     8     9     3    1
     9    16     1    1
    10    16    17    1
    11    18    17    1
    12    19    22   ar
    13    20    23   ar
    14    21    23    1
    15    10     5   ar
    16     3     1   am
    17    23    18   ar
    18     5     6   ar
    19     7     8   ar
    20     9    10   ar
    21     1     2    2
    22    18    22   ar
    23    19    20   ar
    24     3     4    1
@<TRIPOS>MOLECULE
MolPort-002-934-394 2970832 CHEMBL1719021 CSSS00132393515 ChemDiv-3784-0050 LN00924109 MCULE-9483770580 PubChem-3855458 ZINC000002970832 ZINC02970832
 23 24 0 0 0
SMALL
GASTEIGER

@<TRIPOS>ATOM
      1 C           9.7081   43.2124    9.7645 C.2     1  UNL1        0.2376
      2 O          10.5296   44.0136   10.2836 O.2     1  UNL1       -0.2738
      3 N          10.0827   41.8667    9.4425 N.am    1  UNL1       -0.2831
      4 H           9.3831   41.2955    9.0507 H       1  UNL1        0.1549
      5 C          13.6400   40.9341    8.8216 C.ar    1  UNL1        0.1398
      6 C          13.9157   40.1303    9.9390 C.ar    1  UNL1        0.0370
      7 C          12.9272   39.8957   10.8975 C.ar    1  UNL1        0.0044
      8 C          11.6595   40.4621   10.7448 C.ar    1  UNL1        0.0149
      9 C          11.3711   41.2666    9.6321 C.ar    1  UNL1        0.0534
     10 C          12.3676   41.4968    8.6774 C.ar    1  UNL1        0.0515
     11 O          14.6063   41.1878    7.8445 O.3     1  UNL1       -0.4754
     12 C          14.9368   42.5023    7.4128 C.3     1  UNL1        0.2054
     13 C          14.1041   42.8834    6.1986 C.3     1  UNL1        0.0473
     14 C          15.6928   44.8096    6.1975 C.3     1  UNL1        0.0001
     15 C          14.8228   43.9110    5.3393 C.3     1  UNL1        0.0038
     16 C           8.3270   43.6787    9.4620 C.3     1  UNL1        0.1501
     17 S           7.6960   42.8609    7.9643 S.3     1  UNL1       -0.0675
     18 C           5.9902   43.2744    8.3326 C.ar    1  UNL1        0.1718
     19 C           4.1222   44.3021    8.3472 C.ar    1  UNL1        0.1197
     20 C           4.0013   43.1728    9.1411 C.ar    1  UNL1        0.0984
     21 C           5.5099   41.3090    9.8122 C.3     1  UNL1        0.1325
     22 N           5.3731   44.3627    7.8393 N.ar    1  UNL1       -0.2195
     23 N           5.1847   42.5418    9.1166 N.ar    1  UNL1       -0.3033
@<TRIPOS>BOND
     1    14    15    1
     2    15    13    1
     3    13    12    1
     4    12    11    1
     5     5    11    1
     6     6     7   ar
     7     8     9   ar
     8     9     3    1
     9    16     1    1
    10    16    17    1
    11    18    17    1
    12    19    22   ar
    13    20    23   ar
    14    21    23    1
    15    10     5   ar
    16     3     1   am
    17    23    18   ar
    18     5     6   ar
    19     7     8   ar
    20     9    10   ar
    21     1     2    2
    22    18    22   ar
    23    19    20   ar
    24     3     4    1
@<TRIPOS>MOLECULE
MolPort-002-934-394 2970832 CHEMBL1719021 CSSS00132393515 ChemDiv-3784-0050 LN00924109 MCULE-9483770580 PubChem-3855458 ZINC000002970832 ZINC02970832
 23 24 0 0 0
SMALL
GASTEIGER

@<TRIPOS>ATOM
      1 C           9.7672   39.4476    8.0776 C.2     1  UNL1        0.2376
      2 O           9.4253   39.1975    6.8917 O.2     1  UNL1       -0.2738
      3 N           9.2034   40.5513    8.7980 N.am    1  UNL1       -0.2831
      4 H           9.5105   40.6765    9.7250 H       1  UNL1        0.1549
      5 C           6.1993   42.7592    8.6967 C.ar    1  UNL1        0.1398
      6 C           6.3156   43.3284    7.4187 C.ar    1  UNL1        0.0370
      7 C           7.3856   42.9831    6.5900 C.ar    1  UNL1        0.0044
      8 C           8.3439   42.0684    7.0331 C.ar    1  UNL1        0.0149
      9 C           8.2384   41.4919    8.3078 C.ar    1  UNL1        0.0534
     10 C           7.1637   41.8441    9.1315 C.ar    1  UNL1        0.0515
     11 O           5.1408   43.0826    9.5499 O.3     1  UNL1       -0.4754
     12 C           3.7776   42.9803    9.1570 C.3     1  UNL1        0.2054
     13 C           3.0187   42.0771   10.1167 C.3     1  UNL1        0.0473
     14 C           4.0856   40.2489   11.4410 C.3     1  UNL1        0.0001
     15 C           3.5586   40.6565   10.0783 C.3     1  UNL1        0.0038
     16 C          10.7914   38.5915    8.7369 C.3     1  UNL1        0.1501
     17 S          12.4628   39.0907    8.2194 S.3     1  UNL1       -0.0675
     18 C          13.2644   37.9645    9.3620 C.ar    1  UNL1        0.1718
     19 C          14.1744   36.2084   10.1582 C.ar    1  UNL1        0.1197
     20 C          14.1764   37.1821   11.1442 C.ar    1  UNL1        0.0984
     21 C          13.3940   39.5404   11.3070 C.3     1  UNL1        0.1325
     22 N          13.6017   36.7035    9.0387 N.ar    1  UNL1       -0.2195
     23 N          13.6021   38.2763   10.6226 N.ar    1  UNL1       -0.3033
@<TRIPOS>BOND
     1    14    15    1
     2    15    13    1
     3    13    12    1
     4    12    11    1
     5     5    11    1
     6     6     7   ar
     7     8     9   ar
     8     9     3    1
     9    16     1    1
    10    16    17    1
    11    18    17    1
    12    19    22   ar
    13    20    23   ar
    14    21    23    1
    15    10     5   ar
    16     3     1   am
    17    23    18   ar
    18     5     6   ar
    19     7     8   ar
    20     9    10   ar
    21     1     2    2
    22    18    22   ar
    23    19    20   ar
    24     3     4    1
@<TRIPOS>MOLECULE
MolPort-002-934-394 2970832 CHEMBL1719021 CSSS00132393515 ChemDiv-3784-0050 LN00924109 MCULE-9483770580 PubChem-3855458 ZINC000002970832 ZINC02970832
 23 24 0 0 0
SMALL
GASTEIGER

@<TRIPOS>ATOM
      1 C          11.2409   41.7362    6.4715 C.2     1  UNL1        0.2376
      2 O          11.1108   41.6462    7.7209 O.2     1  UNL1       -0.2738
      3 N          12.5018   42.0693    5.8763 N.am    1  UNL1       -0.2831
      4 H          12.5291   42.1089    4.8930 H       1  UNL1        0.1549
      5 C          15.4522   41.6066    8.1103 C.ar    1  UNL1        0.1398
      6 C          16.1228   42.8284    7.9418 C.ar    1  UNL1        0.0370
      7 C          15.6009   43.8053    7.0908 C.ar    1  UNL1        0.0044
      8 C          14.4076   43.5672    6.4047 C.ar    1  UNL1        0.0149
      9 C          13.7275   42.3507    6.5653 C.ar    1  UNL1        0.0534
     10 C          14.2580   41.3775    7.4191 C.ar    1  UNL1        0.0515
     11 O          15.9470   40.6090    8.9545 O.3     1  UNL1       -0.4754
     12 C          15.1184   39.6032    9.5245 C.3     1  UNL1        0.2054
     13 C          13.8451   40.2217   10.0804 C.3     1  UNL1        0.0473
     14 C          14.0999   38.2351   11.5713 C.3     1  UNL1        0.0001
     15 C          13.4770   39.6101   11.4226 C.3     1  UNL1        0.0038
     16 C          10.0570   41.5113    5.5972 C.3     1  UNL1        0.1501
     17 S           8.7866   40.5575    6.4842 S.3     1  UNL1       -0.0675
     18 C           7.7984   42.0107    6.8419 C.ar    1  UNL1        0.1718
     19 C           6.5582   43.7234    6.5689 C.ar    1  UNL1        0.1197
     20 C           6.7967   43.5734    7.9256 C.ar    1  UNL1        0.0984
     21 C           8.0720   41.9632    9.3331 C.3     1  UNL1        0.1325
     22 N           7.1882   42.7390    5.8902 N.ar    1  UNL1       -0.2195
     23 N           7.5758   42.4917    8.0745 N.ar    1  UNL1       -0.3033
@<TRIPOS>BOND
     1    14    15    1
     2    15    13    1
     3    13    12    1
     4    12    11    1
     5     5    11    1
     6     6     7   ar
     7     8     9   ar
     8     9     3    1
     9    16     1    1
    10    16    17    1
    11    18    17    1
    12    19    22   ar
    13    20    23   ar
    14    21    23    1
    15    10     5   ar
    16     3     1   am
    17    23    18   ar
    18     5     6   ar
    19     7     8   ar
    20     9    10   ar
    21     1     2    2
    22    18    22   ar
    23    19    20   ar
    24     3     4    1
@<TRIPOS>MOLECULE
MolPort-002-934-394 2970832 CHEMBL1719021 CSSS00132393515 ChemDiv-3784-0050 LN00924109 MCULE-9483770580 PubChem-3855458 ZINC000002970832 ZINC02970832
 23 24 0 0 0
SMALL
GASTEIGER

@<TRIPOS>ATOM
      1 C           9.9633   42.9359    9.9707 C.2     1  UNL1        0.2376
      2 O          11.0504   43.5649    9.8772 O.2     1  UNL1       -0.2738
      3 N           9.8981   41.5230    9.7371 N.am    1  UNL1       -0.2831
      4 H           9.0158   41.0987    9.8411 H       1  UNL1        0.1549
      5 C          12.6806   39.0595   10.0506 C.ar    1  UNL1        0.1398
      6 C          13.1143   38.9592    8.7193 C.ar    1  UNL1        0.0370
      7 C          12.4884   39.7050    7.7178 C.ar    1  UNL1        0.0044
      8 C          11.4274   40.5542    8.0408 C.ar    1  UNL1        0.0149
      9 C          10.9851   40.6640    9.3677 C.ar    1  UNL1        0.0534
     10 C          11.6174   39.9127   10.3643 C.ar    1  UNL1        0.0515
     11 O          13.2856   38.3279   11.0761 O.3     1  UNL1       -0.4754
     12 C          14.3295   38.8561   11.8851 C.3     1  UNL1        0.2054
     13 C          15.6787   38.3444   11.4052 C.3     1  UNL1        0.0473
     14 C          17.9174   39.0640   10.5655 C.3     1  UNL1        0.0001
     15 C          16.4490   39.4297   10.6704 C.3     1  UNL1        0.0038
     16 C           8.7187   43.6784   10.3116 C.3     1  UNL1        0.1501
     17 S           7.7977   44.0989    8.7999 S.3     1  UNL1       -0.0675
     18 C           6.4777   42.9388    9.1579 C.ar    1  UNL1        0.1718
     19 C           5.4468   41.2145    9.8719 C.ar    1  UNL1        0.1197
     20 C           4.5238   42.0494    9.2627 C.ar    1  UNL1        0.0984
     21 C           4.6170   44.2607    8.1218 C.3     1  UNL1        0.1325
     22 N           6.6739   41.7767    9.8056 N.ar    1  UNL1       -0.2195
     23 N           5.1920   43.1262    8.8231 N.ar    1  UNL1       -0.3033
@<TRIPOS>BOND
     1    14    15    1
     2    15    13    1
     3    13    12    1
     4    12    11    1
     5     5    11    1
     6     6     7   ar
     7     8     9   ar
     8     9     3    1
     9    16     1    1
    10    16    17    1
    11    18    17    1
    12    19    22   ar
    13    20    23   ar
    14    21    23    1
    15    10     5   ar
    16     3     1   am
    17    23    18   ar
    18     5     6   ar
    19     7     8   ar
    20     9    10   ar
    21     1     2    2
    22    18    22   ar
    23    19    20   ar
    24     3     4    1
@<TRIPOS>MOLECULE
MolPort-002-934-394 2970832 CHEMBL1719021 CSSS00132393515 ChemDiv-3784-0050 LN00924109 MCULE-9483770580 PubChem-3855458 ZINC000002970832 ZINC02970832
 23 24 0 0 0
SMALL
GASTEIGER

@<TRIPOS>ATOM
      1 C           9.5994   40.6029    7.8382 C.2     1  UNL1        0.2376
      2 O           9.8835   39.4701    8.3093 O.2     1  UNL1       -0.2738
      3 N          10.6122   41.5937    7.6195 N.am    1  UNL1       -0.2831
      4 H          10.3158   42.4509    7.2368 H       1  UNL1        0.1549
      5 C          14.3030   42.0355    7.3147 C.ar    1  UNL1        0.1398
      6 C          14.7653   41.2635    8.3922 C.ar    1  UNL1        0.0370
      7 C          13.8587   40.5967    9.2194 C.ar    1  UNL1        0.0044
      8 C          12.4870   40.6972    8.9747 C.ar    1  UNL1        0.0149
      9 C          12.0124   41.4649    7.9006 C.ar    1  UNL1        0.0534
     10 C          12.9277   42.1301    7.0776 C.ar    1  UNL1        0.0515
     11 O          15.1833   42.7143    6.4680 O.3     1  UNL1       -0.4754
     12 C          15.2454   44.1338    6.4013 C.3     1  UNL1        0.2054
     13 C          16.6932   44.5990    6.4033 C.3     1  UNL1        0.0473
     14 C          17.7617   43.6154    8.4344 C.3     1  UNL1        0.0001
     15 C          17.6191   43.5132    6.9277 C.3     1  UNL1        0.0038
     16 C           8.1811   40.9255    7.5207 C.3     1  UNL1        0.1501
     17 S           7.7975   42.6374    8.0029 S.3     1  UNL1       -0.0675
     18 C           7.6462   42.2229    9.7411 C.ar    1  UNL1        0.1718
     19 C           6.8967   41.4034   11.5612 C.ar    1  UNL1        0.1197
     20 C           8.0622   42.0965   11.8461 C.ar    1  UNL1        0.0984
     21 C           9.7173   43.4010   10.5197 C.3     1  UNL1        0.1325
     22 N           6.6383   41.4835   10.2371 N.ar    1  UNL1       -0.2195
     23 N           8.5167   42.6014   10.6895 N.ar    1  UNL1       -0.3033
@<TRIPOS>BOND
     1    14    15    1
     2    15    13    1
     3    13    12    1
     4    12    11    1
     5     5    11    1
     6     6     7   ar
     7     8     9   ar
     8     9     3    1
     9    16     1    1
    10    16    17    1
    11    18    17    1
    12    19    22   ar
    13    20    23   ar
    14    21    23    1
    15    10     5   ar
    16     3     1   am
    17    23    18   ar
    18     5     6   ar
    19     7     8   ar
    20     9    10   ar
    21     1     2    2
    22    18    22   ar
    23    19    20   ar
    24     3     4    1
@<TRIPOS>MOLECULE
MolPort-002-934-394 2970832 CHEMBL1719021 CSSS00132393515 ChemDiv-3784-0050 LN00924109 MCULE-9483770580 PubChem-3855458 ZINC000002970832 ZINC02970832
 23 24 0 0 0
SMALL
GASTEIGER

@<TRIPOS>ATOM
      1 C          10.8698   41.1266   10.1137 C.2     1  UNL1        0.2376
      2 O          10.6350   41.8954   11.0832 O.2     1  UNL1       -0.2738
      3 N           9.9846   41.0556    8.9884 N.am    1  UNL1       -0.2831
      4 H          10.2408   40.4410    8.2633 H       1  UNL1        0.1549
      5 C           6.3458   41.7504    8.5568 C.ar    1  UNL1        0.1398
      6 C           6.3392   43.1512    8.4660 C.ar    1  UNL1        0.0370
      7 C           7.5360   43.8667    8.5469 C.ar    1  UNL1        0.0044
      8 C           8.7444   43.1873    8.7185 C.ar    1  UNL1        0.0149
      9 C           8.7645   41.7875    8.8098 C.ar    1  UNL1        0.0534
     10 C           7.5608   41.0790    8.7285 C.ar    1  UNL1        0.0515
     11 O           5.1664   41.0049    8.4789 O.3     1  UNL1       -0.4754
     12 C           3.9951   41.3397    9.2132 C.3     1  UNL1        0.2054
     13 C           3.9122   40.5061   10.4824 C.3     1  UNL1        0.0473
     14 C           2.5154   42.1628   11.7229 C.3     1  UNL1        0.0001
     15 C           3.8206   41.3899   11.7160 C.3     1  UNL1        0.0038
     16 C          12.0805   40.2608   10.1467 C.3     1  UNL1        0.1501
     17 S          12.4016   39.5576    8.4997 S.3     1  UNL1       -0.0675
     18 C          13.7056   40.7346    8.1381 C.ar    1  UNL1        0.1718
     19 C          15.5635   41.7767    8.2278 C.ar    1  UNL1        0.1197
     20 C          14.7971   42.3439    7.2223 C.ar    1  UNL1        0.0984
     21 C          12.5314   41.9320    6.2752 C.3     1  UNL1        0.1325
     22 N          14.8753   40.7646    8.8009 N.ar    1  UNL1       -0.2195
     23 N          13.6359   41.6736    7.1823 N.ar    1  UNL1       -0.3033
@<TRIPOS>BOND
     1    14    15    1
     2    15    13    1
     3    13    12    1
     4    12    11    1
     5     5    11    1
     6     6     7   ar
     7     8     9   ar
     8     9     3    1
     9    16     1    1
    10    16    17    1
    11    18    17    1
    12    19    22   ar
    13    20    23   ar
    14    21    23    1
    15    10     5   ar
    16     3     1   am
    17    23    18   ar
    18     5     6   ar
    19     7     8   ar
    20     9    10   ar
    21     1     2    2
    22    18    22   ar
    23    19    20   ar
    24     3     4    1
