@<TRIPOS>MOLECULE
Molport-047-071-720 PubChem-132766982
 32 35 0 0 0
SMALL
GASTEIGER

@<TRIPOS>ATOM
      1 C          16.1820   42.0283    8.1017 C.ar    1  UNL1        0.1361
      2 C          14.8670   41.5940    8.2657 C.ar    1  UNL1        0.0492
      3 C          13.8488   42.2791    7.6031 C.ar    1  UNL1        0.0644
      4 C          15.4386   43.7587    6.6670 C.ar    1  UNL1        0.1406
      5 C          15.7489   44.9277    5.8041 C.3     1  UNL1        0.0737
      6 N          14.1528   43.3476    6.8169 N.ar    1  UNL1       -0.2348
      7 N          16.4414   43.1015    7.3058 N.ar    1  UNL1       -0.2159
      8 C          12.4343   41.8313    7.7656 C.3     1  UNL1        0.0603
      9 C          11.6729   41.9412    6.4407 C.3     1  UNL1        0.0094
     10 C          10.1777   41.6047    6.5666 C.3     1  UNL1        0.0220
     11 C           9.7390   41.3315    8.0059 C.3     1  UNL1        0.0937
     12 C          11.7336   42.6362    8.8625 C.3     1  UNL1        0.0996
     13 C           9.4427   43.0936    9.7811 C.2     1  UNL1        0.2492
     14 N          10.2968   42.3463    8.9006 N.am    1  UNL1       -0.2757
     15 O           9.9364   43.9786   10.5335 O.2     1  UNL1       -0.2699
     16 C           7.9939   42.8346    9.8132 C.2     1  UNL1        0.0580
     17 C           7.1563   43.4018    8.9503 C.2     1  UNL1        0.0078
     18 C           5.7148   43.1390    8.9879 C.ar    1  UNL1        0.0398
     19 C           4.7246   44.0724    8.7482 C.ar    1  UNL1        0.1216
     20 C           2.7237   41.2008    9.3978 C.3     1  UNL1        0.1538
     21 C           5.0875   41.9389    9.2631 C.ar    1  UNL1        0.0967
     22 N           3.5373   43.4482    8.8765 N.ar    1  UNL1       -0.1676
     23 N           3.7695   42.1828    9.1820 N.ar    1  UNL1       -0.2473
     24 N          17.2362   41.3335    8.7764 N.pl3   1  UNL1       -0.2781
     25 H          18.1435   41.7084    8.7018 H       1  UNL1        0.1555
     26 C          18.5624   37.1225   10.9743 C.3     1  UNL1        0.0524
     27 C          17.6463   38.2219   10.5625 C.ar    1  UNL1        0.0633
     28 C          17.0817   40.1396    9.5504 C.ar    1  UNL1        0.1639
     29 C          16.3003   38.2752   10.9127 C.ar    1  UNL1        0.0238
     30 C          15.5590   37.2780   11.7332 C.3     1  UNL1        0.0395
     31 N          18.0794   39.2624    9.8032 N.ar    1  UNL1       -0.2286
     32 S          15.6281   39.6679   10.2521 S.2     1  UNL1       -0.0561
@<TRIPOS>BOND
     1    26    27    1
     2    27    31   ar
     3    28    24    1
     4    28    32   ar
     5     1     7   ar
     6     2     3   ar
     7     4     6   ar
     8     5     4    1
     9     8     3    1
    10     8     9    1
    11     9    10    1
    12    10    11    1
    13    11    14    1
    14    12    14    1
    15    12     8    1
    16    13    16    1
    17    17    18    1
    18    18    19   ar
    19    20    23    1
    20    29    32   ar
    21    30    29    1
    22    24     1    1
    23    14    13   am
    24    23    22   ar
    25    23    21   ar
    26    28    31   ar
    27     1     2   ar
    28     3     6   ar
    29     4     7   ar
    30    13    15    2
    31    16    17    2
    32    19    22   ar
    33    21    18   ar
    34    29    27   ar
    35    24    25    1
@<TRIPOS>MOLECULE
Molport-047-071-720 PubChem-132766982
 32 35 0 0 0
SMALL
GASTEIGER

@<TRIPOS>ATOM
      1 C           2.6499   42.2524   11.9867 C.ar    1  UNL1        0.1361
      2 C           3.6973   42.8215   11.2632 C.ar    1  UNL1        0.0492
      3 C           4.7063   41.9888   10.7799 C.ar    1  UNL1        0.0644
      4 C           3.6248   40.1107   11.7266 C.ar    1  UNL1        0.1406
      5 C           3.5844   38.6469   11.9778 C.3     1  UNL1        0.0737
      6 N           4.6518   40.6502   11.0201 N.ar    1  UNL1       -0.2348
      7 N           2.6345   40.9088   12.2038 N.ar    1  UNL1       -0.2159
      8 C           5.8371   42.5774   10.0037 C.3     1  UNL1        0.0603
      9 C           5.6656   42.3109    8.5048 C.3     1  UNL1        0.0094
     10 C           6.8571   42.7911    7.6595 C.3     1  UNL1        0.0220
     11 C           8.0112   43.3404    8.4992 C.3     1  UNL1        0.0937
     12 C           7.1778   42.0328   10.5018 C.3     1  UNL1        0.0996
     13 C           9.6017   41.9359    9.8562 C.2     1  UNL1        0.2492
     14 N           8.2792   42.4474    9.6271 N.am    1  UNL1       -0.2757
     15 O           9.8132   41.1518   10.8224 O.2     1  UNL1       -0.2699
     16 C          10.7142   42.3202    8.9721 C.2     1  UNL1        0.0580
     17 C          11.8392   41.6145    8.9058 C.2     1  UNL1        0.0078
     18 C          12.9428   42.0028    8.0228 C.ar    1  UNL1        0.0398
     19 C          14.2309   41.5068    8.0860 C.ar    1  UNL1        0.1216
     20 C          14.5700   43.7621    5.3530 C.3     1  UNL1        0.1538
     21 C          12.9064   42.9152    6.9856 C.ar    1  UNL1        0.0967
     22 N          14.9458   42.1059    7.1137 N.ar    1  UNL1       -0.1676
     23 N          14.1459   42.9387    6.4694 N.ar    1  UNL1       -0.2473
     24 N           1.6080   43.0964   12.4883 N.pl3   1  UNL1       -0.2781
     25 H           1.4670   43.9579   12.0331 H       1  UNL1        0.1555
     26 C           0.0165   43.1168   17.1561 C.3     1  UNL1        0.0524
     27 C          -0.0004   42.7790   15.7059 C.ar    1  UNL1        0.0633
     28 C           0.7543   42.7927   13.5962 C.ar    1  UNL1        0.1639
     29 C          -0.9886   42.0035   15.1067 C.ar    1  UNL1        0.0238
     30 C          -2.1661   41.3928   15.7833 C.3     1  UNL1        0.0395
     31 N           0.9700   43.2178   14.8617 N.ar    1  UNL1       -0.2286
     32 S          -0.6393   41.8605   13.4680 S.2     1  UNL1       -0.0561
@<TRIPOS>BOND
     1    26    27    1
     2    27    31   ar
     3    28    24    1
     4    28    32   ar
     5     1     7   ar
     6     2     3   ar
     7     4     6   ar
     8     5     4    1
     9     8     3    1
    10     8     9    1
    11     9    10    1
    12    10    11    1
    13    11    14    1
    14    12    14    1
    15    12     8    1
    16    13    16    1
    17    17    18    1
    18    18    19   ar
    19    20    23    1
    20    29    32   ar
    21    30    29    1
    22    24     1    1
    23    14    13   am
    24    23    22   ar
    25    23    21   ar
    26    28    31   ar
    27     1     2   ar
    28     3     6   ar
    29     4     7   ar
    30    13    15    2
    31    16    17    2
    32    19    22   ar
    33    21    18   ar
    34    29    27   ar
    35    24    25    1
@<TRIPOS>MOLECULE
Molport-047-071-720 PubChem-132766982
 32 35 0 0 0
SMALL
GASTEIGER

@<TRIPOS>ATOM
      1 C          17.1992   40.3695    9.4731 C.ar    1  UNL1        0.1361
      2 C          15.8234   40.1809    9.6006 C.ar    1  UNL1        0.0492
      3 C          15.3619   39.0165   10.2141 C.ar    1  UNL1        0.0644
      4 C          17.5895   38.2928   10.5409 C.ar    1  UNL1        0.1406
      5 C          18.5446   37.2739   11.0481 C.3     1  UNL1        0.0737
      6 N          16.2522   38.0948   10.6724 N.ar    1  UNL1       -0.2348
      7 N          18.0544   39.4221    9.9458 N.ar    1  UNL1       -0.2159
      8 C          13.8932   38.7945   10.3600 C.3     1  UNL1        0.0603
      9 C          13.3807   37.8224    9.2925 C.3     1  UNL1        0.0094
     10 C          11.8539   37.6410    9.3153 C.3     1  UNL1        0.0220
     11 C          11.1528   38.5464   10.3288 C.3     1  UNL1        0.0937
     12 C          13.1351   40.1224   10.2936 C.3     1  UNL1        0.0996
     13 C          10.8058   41.0253   10.0484 C.2     1  UNL1        0.2492
     14 N          11.6860   39.9062   10.2384 N.am    1  UNL1       -0.2757
     15 O          11.2823   42.1902    9.9537 O.2     1  UNL1       -0.2699
     16 C           9.3499   40.8239    9.9638 C.2     1  UNL1        0.0580
     17 C           8.4848   41.7550   10.3545 C.2     1  UNL1        0.0078
     18 C           7.0364   41.5479   10.2670 C.ar    1  UNL1        0.0398
     19 C           6.3126   41.4410    9.0950 C.ar    1  UNL1        0.1216
     20 C           3.6921   41.0737   11.4759 C.3     1  UNL1        0.1538
     21 C           6.1419   41.4232   11.3129 C.ar    1  UNL1        0.0967
     22 N           5.0205   41.2575    9.4299 N.ar    1  UNL1       -0.1676
     23 N           4.9354   41.2492   10.7495 N.ar    1  UNL1       -0.2473
     24 N          17.6856   41.5605    8.8453 N.pl3   1  UNL1       -0.2781
     25 H          18.6297   41.7961    8.9952 H       1  UNL1        0.1555
     26 C          13.7600   43.1834    6.3397 C.3     1  UNL1        0.0524
     27 C          15.1520   43.2076    6.8683 C.ar    1  UNL1        0.0633
     28 C          16.9143   42.4376    8.0180 C.ar    1  UNL1        0.1639
     29 C          16.0578   44.2315    6.6072 C.ar    1  UNL1        0.0238
     30 C          15.8079   45.4451    5.7814 C.3     1  UNL1        0.0395
     31 N          15.6319   42.2087    7.6550 N.ar    1  UNL1       -0.2286
     32 S          17.5065   43.8782    7.3844 S.2     1  UNL1       -0.0561
@<TRIPOS>BOND
     1    26    27    1
     2    27    31   ar
     3    28    24    1
     4    28    32   ar
     5     1     7   ar
     6     2     3   ar
     7     4     6   ar
     8     5     4    1
     9     8     3    1
    10     8     9    1
    11     9    10    1
    12    10    11    1
    13    11    14    1
    14    12    14    1
    15    12     8    1
    16    13    16    1
    17    17    18    1
    18    18    19   ar
    19    20    23    1
    20    29    32   ar
    21    30    29    1
    22    24     1    1
    23    14    13   am
    24    23    22   ar
    25    23    21   ar
    26    28    31   ar
    27     1     2   ar
    28     3     6   ar
    29     4     7   ar
    30    13    15    2
    31    16    17    2
    32    19    22   ar
    33    21    18   ar
    34    29    27   ar
    35    24    25    1
@<TRIPOS>MOLECULE
Molport-047-071-720 PubChem-132766982
 32 35 0 0 0
SMALL
GASTEIGER

@<TRIPOS>ATOM
      1 C           2.9390   42.2588   11.8054 C.ar    1  UNL1        0.1361
      2 C           4.3237   42.0939   11.7992 C.ar    1  UNL1        0.0492
      3 C           4.9183   41.4718   10.7017 C.ar    1  UNL1        0.0644
      4 C           2.7978   41.2092    9.6880 C.ar    1  UNL1        0.1406
      5 C           1.9724   40.7318    8.5486 C.3     1  UNL1        0.0737
      6 N           4.1455   41.0413    9.6674 N.ar    1  UNL1       -0.2348
      7 N           2.2041   41.8135   10.7500 N.ar    1  UNL1       -0.2159
      8 C           6.3988   41.2846   10.6751 C.3     1  UNL1        0.0603
      9 C           7.0782   42.1671   11.7271 C.3     1  UNL1        0.0094
     10 C           8.6139   42.1081   11.6733 C.3     1  UNL1        0.0220
     11 C           9.1459   41.2628   10.5152 C.3     1  UNL1        0.0937
     12 C           6.9569   41.5757    9.2801 C.3     1  UNL1        0.0996
     13 C           9.1360   41.9642    8.0961 C.2     1  UNL1        0.2492
     14 N           8.4231   41.5877    9.2849 N.am    1  UNL1       -0.2757
     15 O           8.4978   42.2596    7.0480 O.2     1  UNL1       -0.2699
     16 C          10.6075   42.0078    8.0904 C.2     1  UNL1        0.0580
     17 C          11.3453   40.9892    8.5218 C.2     1  UNL1        0.0078
     18 C          12.8102   41.0393    8.5128 C.ar    1  UNL1        0.0398
     19 C          13.5797   41.8007    7.6542 C.ar    1  UNL1        0.1216
     20 C          16.1457   40.2342    9.5603 C.3     1  UNL1        0.1538
     21 C          13.6784   40.3524    9.3399 C.ar    1  UNL1        0.0967
     22 N          14.8728   41.5758    7.9588 N.ar    1  UNL1       -0.1676
     23 N          14.9149   40.7143    8.9611 N.ar    1  UNL1       -0.2473
     24 N           2.3166   42.8958   12.9262 N.pl3   1  UNL1       -0.2781
     25 H           2.8807   43.4783   13.4845 H       1  UNL1        0.1555
     26 C          -2.3310   44.2888   13.8101 C.3     1  UNL1        0.0524
     27 C          -1.1778   43.3515   13.7149 C.ar    1  UNL1        0.0633
     28 C           0.9429   42.7567   13.3030 C.ar    1  UNL1        0.1639
     29 C          -1.2593   41.9960   14.0201 C.ar    1  UNL1        0.0238
     30 C          -2.4712   41.2637   14.4805 C.3     1  UNL1        0.0395
     31 N           0.0509   43.7730   13.3154 N.ar    1  UNL1       -0.2286
     32 S           0.2533   41.3002   13.7834 S.2     1  UNL1       -0.0561
@<TRIPOS>BOND
     1    26    27    1
     2    27    31   ar
     3    28    24    1
     4    28    32   ar
     5     1     7   ar
     6     2     3   ar
     7     4     6   ar
     8     5     4    1
     9     8     3    1
    10     8     9    1
    11     9    10    1
    12    10    11    1
    13    11    14    1
    14    12    14    1
    15    12     8    1
    16    13    16    1
    17    17    18    1
    18    18    19   ar
    19    20    23    1
    20    29    32   ar
    21    30    29    1
    22    24     1    1
    23    14    13   am
    24    23    22   ar
    25    23    21   ar
    26    28    31   ar
    27     1     2   ar
    28     3     6   ar
    29     4     7   ar
    30    13    15    2
    31    16    17    2
    32    19    22   ar
    33    21    18   ar
    34    29    27   ar
    35    24    25    1
@<TRIPOS>MOLECULE
Molport-047-071-720 PubChem-132766982
 32 35 0 0 0
SMALL
GASTEIGER

@<TRIPOS>ATOM
      1 C           4.5925   41.1095   11.2014 C.ar    1  UNL1        0.1361
      2 C           3.8625   41.4797   12.3304 C.ar    1  UNL1        0.0492
      3 C           2.5087   41.7802   12.1826 C.ar    1  UNL1        0.0644
      4 C           2.6543   41.3457    9.8625 C.ar    1  UNL1        0.1406
      5 C           2.0032   41.2730    8.5290 C.3     1  UNL1        0.0737
      6 N           1.9300   41.7079   10.9529 N.ar    1  UNL1       -0.2348
      7 N           3.9740   41.0498    9.9905 N.ar    1  UNL1       -0.2159
      8 C           1.7090   42.1794   13.3780 C.3     1  UNL1        0.0603
      9 C           0.2167   41.9224   13.1454 C.3     1  UNL1        0.0094
     10 C          -0.6746   42.4203   14.2953 C.3     1  UNL1        0.0220
     11 C           0.1021   43.1615   15.3844 C.3     1  UNL1        0.0937
     12 C           1.9583   43.6475   13.7312 C.3     1  UNL1        0.0996
     13 C           1.0309   45.4919   15.1593 C.2     1  UNL1        0.2492
     14 N           1.0382   44.1076   14.7760 N.am    1  UNL1       -0.2757
     15 O           1.8319   46.2993   14.6120 O.2     1  UNL1       -0.2699
     16 C           0.0955   45.9768   16.1874 C.2     1  UNL1        0.0580
     17 C           0.4629   46.8504   17.1201 C.2     1  UNL1        0.0078
     18 C          -0.4740   47.3293   18.1405 C.ar    1  UNL1        0.0398
     19 C          -1.0929   48.5646   18.1422 C.ar    1  UNL1        0.1216
     20 C          -2.4488   47.1895   21.1324 C.3     1  UNL1        0.1538
     21 C          -0.9057   46.6542   19.2663 C.ar    1  UNL1        0.0967
     22 N          -1.8734   48.6273   19.2387 N.ar    1  UNL1       -0.1676
     23 N          -1.7516   47.4860   19.8954 N.ar    1  UNL1       -0.2473
     24 N           5.9830   40.7986   11.3398 N.pl3   1  UNL1       -0.2781
     25 H           6.2222   40.0625   11.9482 H       1  UNL1        0.1555
     26 C           8.6672   42.4296    7.5375 C.3     1  UNL1        0.0524
     27 C           8.3000   42.2265    8.9663 C.ar    1  UNL1        0.0633
     28 C           7.0546   41.4684   10.6678 C.ar    1  UNL1        0.1639
     29 C           9.0441   42.7252   10.0316 C.ar    1  UNL1        0.0238
     30 C          10.2974   43.5237    9.9387 C.3     1  UNL1        0.0395
     31 N           7.1914   41.5262    9.3237 N.ar    1  UNL1       -0.2286
     32 S           8.2930   42.2770   11.4678 S.2     1  UNL1       -0.0561
@<TRIPOS>BOND
     1    26    27    1
     2    27    31   ar
     3    28    24    1
     4    28    32   ar
     5     1     7   ar
     6     2     3   ar
     7     4     6   ar
     8     5     4    1
     9     8     3    1
    10     8     9    1
    11     9    10    1
    12    10    11    1
    13    11    14    1
    14    12    14    1
    15    12     8    1
    16    13    16    1
    17    17    18    1
    18    18    19   ar
    19    20    23    1
    20    29    32   ar
    21    30    29    1
    22    24     1    1
    23    14    13   am
    24    23    22   ar
    25    23    21   ar
    26    28    31   ar
    27     1     2   ar
    28     3     6   ar
    29     4     7   ar
    30    13    15    2
    31    16    17    2
    32    19    22   ar
    33    21    18   ar
    34    29    27   ar
    35    24    25    1
@<TRIPOS>MOLECULE
Molport-047-071-720 PubChem-132766982
 32 35 0 0 0
SMALL
GASTEIGER

@<TRIPOS>ATOM
      1 C           8.7720   41.7370   10.7601 C.ar    1  UNL1        0.1361
      2 C           9.9889   41.3453   10.2029 C.ar    1  UNL1        0.0492
      3 C          11.0005   40.8983   11.0525 C.ar    1  UNL1        0.0644
      4 C           9.5942   41.2375   12.9234 C.ar    1  UNL1        0.1406
      5 C           9.3796   41.1799   14.3924 C.3     1  UNL1        0.0737
      6 N          10.7851   40.8526   12.3956 N.ar    1  UNL1       -0.2348
      7 N           8.5991   41.6751   12.1087 N.ar    1  UNL1       -0.2159
      8 C          12.3110   40.4750   10.4769 C.3     1  UNL1        0.0603
      9 C          12.5619   41.1624    9.1309 C.3     1  UNL1        0.0094
     10 C          13.8426   40.6805    8.4292 C.3     1  UNL1        0.0220
     11 C          14.5451   39.5415    9.1694 C.3     1  UNL1        0.0937
     12 C          12.3715   38.9530   10.3286 C.3     1  UNL1        0.0996
     13 C          13.7417   37.1553    9.2368 C.2     1  UNL1        0.2492
     14 N          13.5663   38.5371    9.5873 N.am    1  UNL1       -0.2757
     15 O          12.8792   36.3037    9.5887 O.2     1  UNL1       -0.2699
     16 C          14.9217   36.7238    8.4697 C.2     1  UNL1        0.0580
     17 C          15.1790   35.4410    8.2327 C.2     1  UNL1        0.0078
     18 C          16.3558   35.0186    7.4676 C.ar    1  UNL1        0.0398
     19 C          17.6171   35.5736    7.5679 C.ar    1  UNL1        0.1216
     20 C          18.2310   33.0851    5.0978 C.3     1  UNL1        0.1538
     21 C          16.4263   34.0109    6.5247 C.ar    1  UNL1        0.0967
     22 N          18.4204   34.9165    6.7087 N.ar    1  UNL1       -0.1676
     23 N          17.6991   33.9921    6.0973 N.ar    1  UNL1       -0.2473
     24 N           7.7256   42.1978    9.8988 N.pl3   1  UNL1       -0.2781
     25 H           7.9716   42.8390    9.1934 H       1  UNL1        0.1555
     26 C           3.7083   40.0123   11.7446 C.3     1  UNL1        0.0524
     27 C           4.5048   40.8259   10.7848 C.ar    1  UNL1        0.0633
     28 C           6.3517   41.8044    9.9772 C.ar    1  UNL1        0.1639
     29 C           3.9673   41.4202    9.6469 C.ar    1  UNL1        0.0238
     30 C           2.5488   41.3527    9.1991 C.3     1  UNL1        0.0395
     31 N           5.8342   41.0416   10.9667 N.ar    1  UNL1       -0.2286
     32 S           5.1926   42.2426    8.8406 S.2     1  UNL1       -0.0561
@<TRIPOS>BOND
     1    26    27    1
     2    27    31   ar
     3    28    24    1
     4    28    32   ar
     5     1     7   ar
     6     2     3   ar
     7     4     6   ar
     8     5     4    1
     9     8     3    1
    10     8     9    1
    11     9    10    1
    12    10    11    1
    13    11    14    1
    14    12    14    1
    15    12     8    1
    16    13    16    1
    17    17    18    1
    18    18    19   ar
    19    20    23    1
    20    29    32   ar
    21    30    29    1
    22    24     1    1
    23    14    13   am
    24    23    22   ar
    25    23    21   ar
    26    28    31   ar
    27     1     2   ar
    28     3     6   ar
    29     4     7   ar
    30    13    15    2
    31    16    17    2
    32    19    22   ar
    33    21    18   ar
    34    29    27   ar
    35    24    25    1
@<TRIPOS>MOLECULE
Molport-047-071-720 PubChem-132766982
 32 35 0 0 0
SMALL
GASTEIGER

@<TRIPOS>ATOM
      1 C          15.3741   40.1436    9.6794 C.ar    1  UNL1        0.1361
      2 C          14.0483   40.4986    9.4329 C.ar    1  UNL1        0.0492
      3 C          13.0331   39.7167    9.9832 C.ar    1  UNL1        0.0644
      4 C          14.6467   38.2997   10.9740 C.ar    1  UNL1        0.1406
      5 C          14.9714   37.1123   11.8059 C.3     1  UNL1        0.0737
      6 N          13.3503   38.6327   10.7427 N.ar    1  UNL1       -0.2348
      7 N          15.6466   39.0517   10.4449 N.ar    1  UNL1       -0.2159
      8 C          11.6072   40.0785    9.7312 C.3     1  UNL1        0.0603
      9 C          11.5101   41.3162    8.8334 C.3     1  UNL1        0.0094
     10 C          10.0683   41.8107    8.6300 C.3     1  UNL1        0.0220
     11 C           9.0402   41.0289    9.4488 C.3     1  UNL1        0.0937
     12 C          10.8643   40.3051   11.0499 C.3     1  UNL1        0.0996
     13 C           8.7128   41.2464   11.9367 C.2     1  UNL1        0.2492
     14 N           9.5227   40.8496   10.8187 N.am    1  UNL1       -0.2757
     15 O           9.1506   41.1025   13.1118 O.2     1  UNL1       -0.2699
     16 C           7.3740   41.8198   11.7224 C.2     1  UNL1        0.0580
     17 C           6.3393   41.0749   11.3450 C.2     1  UNL1        0.0078
     18 C           5.0089   41.6525   11.1339 C.ar    1  UNL1        0.0398
     19 C           4.6622   42.5093   10.1068 C.ar    1  UNL1        0.1216
     20 C           1.5389   42.2761   11.7986 C.3     1  UNL1        0.1538
     21 C           3.8770   41.4556   11.9018 C.ar    1  UNL1        0.0967
     22 N           3.3588   42.8168   10.2558 N.ar    1  UNL1       -0.1676
     23 N           2.9071   42.1838   11.3253 N.ar    1  UNL1       -0.2473
     24 N          16.4254   40.9382    9.1202 N.pl3   1  UNL1       -0.2781
     25 H          17.3404   40.7650    9.4396 H       1  UNL1        0.1555
     26 C          14.0963   43.6842    5.7502 C.3     1  UNL1        0.0524
     27 C          15.2335   43.2321    6.5986 C.ar    1  UNL1        0.0633
     28 C          16.2577   41.9632    8.1355 C.ar    1  UNL1        0.1639
     29 C          16.4971   43.8148    6.5681 C.ar    1  UNL1        0.0238
     30 C          16.9253   44.9554    5.7120 C.3     1  UNL1        0.0395
     31 N          15.1027   42.2001    7.4732 N.ar    1  UNL1       -0.2286
     32 S          17.4842   43.0151    7.6698 S.2     1  UNL1       -0.0561
@<TRIPOS>BOND
     1    26    27    1
     2    27    31   ar
     3    28    24    1
     4    28    32   ar
     5     1     7   ar
     6     2     3   ar
     7     4     6   ar
     8     5     4    1
     9     8     3    1
    10     8     9    1
    11     9    10    1
    12    10    11    1
    13    11    14    1
    14    12    14    1
    15    12     8    1
    16    13    16    1
    17    17    18    1
    18    18    19   ar
    19    20    23    1
    20    29    32   ar
    21    30    29    1
    22    24     1    1
    23    14    13   am
    24    23    22   ar
    25    23    21   ar
    26    28    31   ar
    27     1     2   ar
    28     3     6   ar
    29     4     7   ar
    30    13    15    2
    31    16    17    2
    32    19    22   ar
    33    21    18   ar
    34    29    27   ar
    35    24    25    1
@<TRIPOS>MOLECULE
Molport-047-071-720 PubChem-132766982
 32 35 0 0 0
SMALL
GASTEIGER

@<TRIPOS>ATOM
      1 C           5.6486   42.2864    8.1613 C.ar    1  UNL1        0.1361
      2 C           6.6383   41.6440    8.9046 C.ar    1  UNL1        0.0492
      3 C           7.9711   41.8120    8.5300 C.ar    1  UNL1        0.0644
      4 C           7.3040   43.2105    6.7433 C.ar    1  UNL1        0.1406
      5 C           7.6621   44.0567    5.5758 C.3     1  UNL1        0.0737
      6 N           8.2794   42.5912    7.4575 N.ar    1  UNL1       -0.2348
      7 N           6.0012   43.0566    7.0960 N.ar    1  UNL1       -0.2159
      8 C           9.0461   41.1327    9.3115 C.3     1  UNL1        0.0603
      9 C           9.7302   42.1169   10.2657 C.3     1  UNL1        0.0094
     10 C          10.9254   41.5072   11.0170 C.3     1  UNL1        0.0220
     11 C          11.2484   40.0777   10.5800 C.3     1  UNL1        0.0937
     12 C          10.0689   40.4841    8.3759 C.3     1  UNL1        0.0996
     13 C          12.3565   39.4510    8.4067 C.2     1  UNL1        0.2492
     14 N          11.2293   39.9842    9.1197 N.am    1  UNL1       -0.2757
     15 O          12.3324   39.3941    7.1460 O.2     1  UNL1       -0.2699
     16 C          13.5411   38.9692    9.1358 C.2     1  UNL1        0.0580
     17 C          14.4918   39.7954    9.5620 C.2     1  UNL1        0.0078
     18 C          15.6685   39.3087   10.2878 C.ar    1  UNL1        0.0398
     19 C          15.6396   38.5293   11.4283 C.ar    1  UNL1        0.1216
     20 C          19.1572   38.8554   10.9912 C.3     1  UNL1        0.1538
     21 C          16.9968   39.5308    9.9780 C.ar    1  UNL1        0.0967
     22 N          16.9152   38.2914   11.7912 N.ar    1  UNL1       -0.1676
     23 N          17.7087   38.8923   10.9207 N.ar    1  UNL1       -0.2473
     24 N           4.2767   42.1219    8.5356 N.pl3   1  UNL1       -0.2781
     25 H           3.5980   42.2694    7.8378 H       1  UNL1        0.1555
     26 C           3.6805   39.3206   12.5505 C.3     1  UNL1        0.0524
     27 C           3.5154   40.5174   11.6799 C.ar    1  UNL1        0.0633
     28 C           3.8091   41.7610    9.8393 C.ar    1  UNL1        0.1639
     29 C           2.7750   41.6385   12.0434 C.ar    1  UNL1        0.0238
     30 C           2.0400   41.8370   13.3230 C.3     1  UNL1        0.0395
     31 N           4.0909   40.5883   10.4508 N.ar    1  UNL1       -0.2286
     32 S           2.8407   42.7557   10.7883 S.2     1  UNL1       -0.0561
@<TRIPOS>BOND
     1    26    27    1
     2    27    31   ar
     3    28    24    1
     4    28    32   ar
     5     1     7   ar
     6     2     3   ar
     7     4     6   ar
     8     5     4    1
     9     8     3    1
    10     8     9    1
    11     9    10    1
    12    10    11    1
    13    11    14    1
    14    12    14    1
    15    12     8    1
    16    13    16    1
    17    17    18    1
    18    18    19   ar
    19    20    23    1
    20    29    32   ar
    21    30    29    1
    22    24     1    1
    23    14    13   am
    24    23    22   ar
    25    23    21   ar
    26    28    31   ar
    27     1     2   ar
    28     3     6   ar
    29     4     7   ar
    30    13    15    2
    31    16    17    2
    32    19    22   ar
    33    21    18   ar
    34    29    27   ar
    35    24    25    1
@<TRIPOS>MOLECULE
Molport-047-071-720 PubChem-132766982
 32 35 0 0 0
SMALL
GASTEIGER

@<TRIPOS>ATOM
      1 C           2.9807   42.0129   11.7589 C.ar    1  UNL1        0.1361
      2 C           4.2942   42.4096   11.5102 C.ar    1  UNL1        0.0492
      3 C           4.8208   42.2164   10.2333 C.ar    1  UNL1        0.0644
      4 C           2.7743   41.2693    9.5207 C.ar    1  UNL1        0.1406
      5 C           1.9523   40.6532    8.4473 C.3     1  UNL1        0.0737
      6 N           4.0523   41.6505    9.2631 N.ar    1  UNL1       -0.2348
      7 N           2.2472   41.4510   10.7595 N.ar    1  UNL1       -0.2159
      8 C           6.2249   42.6331    9.9459 C.3     1  UNL1        0.0603
      9 C           6.2520   43.8540    9.0208 C.3     1  UNL1        0.0094
     10 C           7.6710   44.2633    8.5922 C.3     1  UNL1        0.0220
     11 C           8.7532   43.3058    9.0929 C.3     1  UNL1        0.0937
     12 C           7.0206   41.4750    9.3395 C.3     1  UNL1        0.0996
     13 C           9.1865   41.0066    8.1603 C.2     1  UNL1        0.2492
     14 N           8.3371   41.9203    8.8721 N.am    1  UNL1       -0.2757
     15 O           8.8055   39.8198    7.9617 O.2     1  UNL1       -0.2699
     16 C          10.5003   41.4440    7.6603 C.2     1  UNL1        0.0580
     17 C          11.6071   41.3262    8.3877 C.2     1  UNL1        0.0078
     18 C          12.9120   41.7635    7.8833 C.ar    1  UNL1        0.0398
     19 C          14.1325   41.2338    8.2560 C.ar    1  UNL1        0.1216
     20 C          15.2143   43.7088    5.9376 C.3     1  UNL1        0.1538
     21 C          13.1639   42.7630    6.9629 C.ar    1  UNL1        0.0967
     22 N          15.0886   41.8978    7.5775 N.ar    1  UNL1       -0.1676
     23 N          14.4980   42.8020    6.8144 N.ar    1  UNL1       -0.2473
     24 N           2.4284   42.2057   13.0655 N.pl3   1  UNL1       -0.2781
     25 H           3.0339   42.0882   13.8329 H       1  UNL1        0.1555
     26 C          -2.4697   41.6676   13.2671 C.3     1  UNL1        0.0524
     27 C          -1.1585   42.3472   13.4582 C.ar    1  UNL1        0.0633
     28 C           1.0699   42.5550   13.3496 C.ar    1  UNL1        0.1639
     29 C          -1.0210   43.6112   14.0242 C.ar    1  UNL1        0.0238
     30 C          -2.1209   44.4820   14.5233 C.3     1  UNL1        0.0395
     31 N           0.0085   41.7605   13.0831 N.ar    1  UNL1       -0.2286
     32 S           0.6123   44.0101   14.0574 S.2     1  UNL1       -0.0561
@<TRIPOS>BOND
     1    26    27    1
     2    27    31   ar
     3    28    24    1
     4    28    32   ar
     5     1     7   ar
     6     2     3   ar
     7     4     6   ar
     8     5     4    1
     9     8     3    1
    10     8     9    1
    11     9    10    1
    12    10    11    1
    13    11    14    1
    14    12    14    1
    15    12     8    1
    16    13    16    1
    17    17    18    1
    18    18    19   ar
    19    20    23    1
    20    29    32   ar
    21    30    29    1
    22    24     1    1
    23    14    13   am
    24    23    22   ar
    25    23    21   ar
    26    28    31   ar
    27     1     2   ar
    28     3     6   ar
    29     4     7   ar
    30    13    15    2
    31    16    17    2
    32    19    22   ar
    33    21    18   ar
    34    29    27   ar
    35    24    25    1
@<TRIPOS>MOLECULE
Molport-047-071-720 PubChem-132766982
 32 35 0 0 0
SMALL
GASTEIGER

@<TRIPOS>ATOM
      1 C           3.7041   42.3162   10.7900 C.ar    1  UNL1        0.1361
      2 C           5.0051   41.9095   10.4958 C.ar    1  UNL1        0.0492
      3 C           5.6449   42.4642    9.3877 C.ar    1  UNL1        0.0644
      4 C           3.7284   43.7687    8.9206 C.ar    1  UNL1        0.1406
      5 C           3.0375   44.7727    8.0707 C.3     1  UNL1        0.0737
      6 N           4.9957   43.3825    8.6212 N.ar    1  UNL1       -0.2348
      7 N           3.0920   43.2375    9.9968 N.ar    1  UNL1       -0.2159
      8 C           7.0372   42.0422    9.0545 C.3     1  UNL1        0.0603
      9 C           7.0312   40.7680    8.2039 C.3     1  UNL1        0.0094
     10 C           8.4383   40.2149    7.9236 C.3     1  UNL1        0.0220
     11 C           9.5458   40.9907    8.6380 C.3     1  UNL1        0.0937
     12 C           7.8617   41.8405   10.3280 C.3     1  UNL1        0.0996
     13 C          10.0373   40.8581   11.1047 C.2     1  UNL1        0.2492
     14 N           9.1655   41.2400   10.0289 N.am    1  UNL1       -0.2757
     15 O           9.6869   41.0629   12.2999 O.2     1  UNL1       -0.2699
     16 C          11.3384   40.2295   10.8239 C.2     1  UNL1        0.0580
     17 C          12.3702   40.9230   10.3521 C.2     1  UNL1        0.0078
     18 C          13.6630   40.2905   10.0751 C.ar    1  UNL1        0.0398
     19 C          14.5060   40.6168    9.0300 C.ar    1  UNL1        0.1216
     20 C          16.4023   38.0269   10.5689 C.3     1  UNL1        0.1538
     21 C          14.2697   39.2737   10.7876 C.ar    1  UNL1        0.0967
     22 N          15.5873   39.8173    9.1146 N.ar    1  UNL1       -0.1676
     23 N          15.4322   39.0261   10.1627 N.ar    1  UNL1       -0.2473
     24 N           3.0364   41.7542   11.9248 N.pl3   1  UNL1       -0.2781
     25 H           3.3382   40.8693   12.2331 H       1  UNL1        0.1555
     26 C           0.7550   45.1667   14.6583 C.3     1  UNL1        0.0524
     27 C           0.8965   43.8992   13.8897 C.ar    1  UNL1        0.0633
     28 C           1.9668   42.3711   12.6486 C.ar    1  UNL1        0.1639
     29 C          -0.1337   42.9776   13.7268 C.ar    1  UNL1        0.0238
     30 C          -1.5147   43.0883   14.2723 C.3     1  UNL1        0.0395
     31 N           2.0664   43.5588   13.2876 N.ar    1  UNL1       -0.2286
     32 S           0.4349   41.6946   12.8002 S.2     1  UNL1       -0.0561
@<TRIPOS>BOND
     1    26    27    1
     2    27    31   ar
     3    28    24    1
     4    28    32   ar
     5     1     7   ar
     6     2     3   ar
     7     4     6   ar
     8     5     4    1
     9     8     3    1
    10     8     9    1
    11     9    10    1
    12    10    11    1
    13    11    14    1
    14    12    14    1
    15    12     8    1
    16    13    16    1
    17    17    18    1
    18    18    19   ar
    19    20    23    1
    20    29    32   ar
    21    30    29    1
    22    24     1    1
    23    14    13   am
    24    23    22   ar
    25    23    21   ar
    26    28    31   ar
    27     1     2   ar
    28     3     6   ar
    29     4     7   ar
    30    13    15    2
    31    16    17    2
    32    19    22   ar
    33    21    18   ar
    34    29    27   ar
    35    24    25    1
