@<TRIPOS>MOLECULE
MolPort-008-373-247 55271854 CSSS00159787734 MCULE-2691739268 PubChem-46992885 ZINC000055271854 ZINC55271854
 25 25 0 0 0
SMALL
GASTEIGER

@<TRIPOS>ATOM
      1 C          12.5041   42.2488    7.3355 C.ar    0  UNK0        0.0503
      2 C          12.0491   42.5233    8.6344 C.ar    0  UNK0        0.0144
      3 C          10.7228   42.2614    8.9890 C.ar    0  UNK0       -0.0025
      4 C           9.8403   41.7205    8.0480 C.ar    0  UNK0       -0.0130
      5 C          10.2881   41.4491    6.7513 C.ar    0  UNK0       -0.0025
      6 C          11.6148   41.7117    6.3982 C.ar    0  UNK0        0.0144
      7 C          14.3129   43.5722    6.0902 C.2     0  UNK0        0.2261
      8 O          13.5131   44.4295    5.6306 O.2     0  UNK0       -0.2748
      9 N          13.8565   42.5061    6.9342 N.am    0  UNK0       -0.2839
     10 H          14.5428   41.8870    7.2732 H       0  UNK0        0.1549
     11 C          15.7638   43.6806    5.7609 C.3     0  UNK0        0.0854
     12 C          17.3839   43.6907    7.6602 C.3     0  UNK0        0.0005
     13 C          16.4935   44.5451    6.7772 C.3     0  UNK0        0.0096
     14 C           8.4201   41.4558    8.4217 C.3     0  UNK0        0.1113
     15 C           7.7043   42.7298    8.7480 C.2     0  UNK0        0.2269
     16 O           7.9248   43.7593    8.0577 O.2     0  UNK0       -0.2747
     17 N           6.7894   42.8059    9.8443 N.am    1  VAL1       -0.3032
     18 H           6.3592   43.6708   10.0340 H       1  VAL1        0.1495
     19 CA          6.4605   41.6684   10.6962 C.3     1  VAL1        0.1007
     20 C           7.4657   41.5436   11.8434 C.3     1  VAL1        0.1565
     21 O           8.0132   42.7854   12.1733 O.3     1  VAL1       -0.3802
     22 H           8.4812   43.1469   11.4045 H       1  VAL1        0.2105
     23 CB          4.9952   41.7182   11.1522 C.3     1  VAL1        0.0205
     24 CG1         4.3739   40.3420   11.3268 C.3     1  VAL1        0.0018
     25 CG2         4.1525   42.5624   10.2145 C.3     1  VAL1        0.0018
@<TRIPOS>BOND
     1    12    13    1
     2    13    11    1
     3    11     7    1
     4     7     9   am
     5     2     3   ar
     6     4     5   ar
     7    14     4    1
     8    14    15    1
     9    15    17   am
    10    19    17    1
    11    19    20    1
    12    19    23    1
    13    20    21    1
    14    23    24    1
    15    23    25    1
    16     6     1   ar
    17     9     1    1
    18     7     8    2
    19     1     2   ar
    20     3     4   ar
    21    15    16    2
    22     5     6   ar
    23    21    22    1
    24     9    10    1
    25    17    18    1
@<TRIPOS>MOLECULE
MolPort-008-373-247 55271854 CSSS00159787734 MCULE-2691739268 PubChem-46992885 ZINC000055271854 ZINC55271854
 25 25 0 0 0
SMALL
GASTEIGER

@<TRIPOS>ATOM
      1 C          13.6675   42.0142    7.0556 C.ar    0  UNK0        0.0503
      2 C          12.6382   41.9990    6.1018 C.ar    0  UNK0        0.0144
      3 C          11.4895   41.2313    6.3136 C.ar    0  UNK0       -0.0025
      4 C          11.3594   40.4737    7.4822 C.ar    0  UNK0       -0.0130
      5 C          12.3843   40.4826    8.4336 C.ar    0  UNK0       -0.0025
      6 C          13.5325   41.2507    8.2203 C.ar    0  UNK0        0.0144
      7 C          14.9719   44.0480    6.1975 C.2     0  UNK0        0.2261
      8 O          13.9612   44.6171    5.7069 O.2     0  UNK0       -0.2748
      9 N          14.8613   42.7873    6.8725 N.am    0  UNK0       -0.2839
     10 H          15.6909   42.4141    7.2490 H       0  UNK0        0.1549
     11 C          16.3046   44.7089    6.0862 C.3     0  UNK0        0.0854
     12 C          17.9146   43.9744    7.8469 C.3     0  UNK0        0.0005
     13 C          17.4266   43.7415    6.4292 C.3     0  UNK0        0.0096
     14 C          10.1404   39.6414    7.7010 C.3     0  UNK0        0.1113
     15 C           9.2991   39.5855    6.4637 C.2     0  UNK0        0.2269
     16 O           9.5201   38.6934    5.6033 O.2     0  UNK0       -0.2747
     17 N           8.2613   40.5410    6.2294 N.am    1  VAL1       -0.3032
     18 H           7.7490   40.4774    5.3911 H       1  VAL1        0.1495
     19 CA          7.9224   41.6049    7.1680 C.3     1  VAL1        0.1007
     20 C           7.1001   42.6945    6.4762 C.3     1  VAL1        0.1565
     21 O           6.5261   42.2212    5.2943 O.3     1  VAL1       -0.3802
     22 H           7.2264   41.9429    4.6836 H       1  VAL1        0.2105
     23 CB          7.2694   41.0411    8.4382 C.3     1  VAL1        0.0205
     24 CG1         5.7526   41.1391    8.4274 C.3     1  VAL1        0.0018
     25 CG2         7.8315   41.6957    9.6862 C.3     1  VAL1        0.0018
@<TRIPOS>BOND
     1    12    13    1
     2    13    11    1
     3    11     7    1
     4     7     9   am
     5     2     3   ar
     6     4     5   ar
     7    14     4    1
     8    14    15    1
     9    15    17   am
    10    19    17    1
    11    19    20    1
    12    19    23    1
    13    20    21    1
    14    23    24    1
    15    23    25    1
    16     6     1   ar
    17     9     1    1
    18     7     8    2
    19     1     2   ar
    20     3     4   ar
    21    15    16    2
    22     5     6   ar
    23    21    22    1
    24     9    10    1
    25    17    18    1
@<TRIPOS>MOLECULE
MolPort-008-373-247 55271854 CSSS00159787734 MCULE-2691739268 PubChem-46992885 ZINC000055271854 ZINC55271854
 25 25 0 0 0
SMALL
GASTEIGER

@<TRIPOS>ATOM
      1 C          12.5807   42.1622    7.1762 C.ar    0  UNK0        0.0503
      2 C          11.9133   42.4794    8.3692 C.ar    0  UNK0        0.0144
      3 C          10.5930   42.0676    8.5716 C.ar    0  UNK0       -0.0025
      4 C           9.9295   41.3331    7.5833 C.ar    0  UNK0       -0.0130
      5 C          10.5892   41.0182    6.3912 C.ar    0  UNK0       -0.0025
      6 C          11.9095   41.4308    6.1902 C.ar    0  UNK0        0.0144
      7 C          14.3648   43.6799    6.1331 C.2     0  UNK0        0.2261
      8 O          13.5340   44.4429    5.5730 O.2     0  UNK0       -0.2748
      9 N          13.9339   42.5691    6.9316 N.am    0  UNK0       -0.2839
     10 H          14.6403   42.0302    7.3558 H       0  UNK0        0.1549
     11 C          15.8232   43.9497    5.9734 C.3     0  UNK0        0.0854
     12 C          17.4767   43.1495    7.6637 C.3     0  UNK0        0.0005
     13 C          16.4777   44.2372    7.3155 C.3     0  UNK0        0.0096
     14 C           8.5147   40.9073    7.7925 C.3     0  UNK0        0.1113
     15 C           7.6344   41.4088    6.6900 C.2     0  UNK0        0.2269
     16 O           7.9508   41.1832    5.4926 O.2     0  UNK0       -0.2747
     17 N           6.4501   42.1594    6.9707 N.am    1  VAL1       -0.3032
     18 H           5.9145   42.4871    6.2123 H       1  VAL1        0.1495
     19 CA          5.9942   42.4647    8.3222 C.3     1  VAL1        0.1007
     20 C           6.7146   41.5858    9.3472 C.3     1  VAL1        0.1565
     21 O           6.4131   41.9806   10.6525 O.3     1  VAL1       -0.3802
     22 H           6.7030   42.8963   10.7885 H       1  VAL1        0.2105
     23 CB          6.0856   43.9692    8.6153 C.3     1  VAL1        0.0205
     24 CG1         5.2345   44.8151    7.6824 C.3     1  VAL1        0.0018
     25 CG2         7.5246   44.4497    8.5977 C.3     1  VAL1        0.0018
@<TRIPOS>BOND
     1    12    13    1
     2    13    11    1
     3    11     7    1
     4     7     9   am
     5     2     3   ar
     6     4     5   ar
     7    14     4    1
     8    14    15    1
     9    15    17   am
    10    19    17    1
    11    19    20    1
    12    19    23    1
    13    20    21    1
    14    23    24    1
    15    23    25    1
    16     6     1   ar
    17     9     1    1
    18     7     8    2
    19     1     2   ar
    20     3     4   ar
    21    15    16    2
    22     5     6   ar
    23    21    22    1
    24     9    10    1
    25    17    18    1
@<TRIPOS>MOLECULE
MolPort-008-373-247 55271854 CSSS00159787734 MCULE-2691739268 PubChem-46992885 ZINC000055271854 ZINC55271854
 25 25 0 0 0
SMALL
GASTEIGER

@<TRIPOS>ATOM
      1 C          13.2276   41.9434    7.1945 C.ar    0  UNK0        0.0503
      2 C          13.1756   41.4259    8.4979 C.ar    0  UNK0        0.0144
      3 C          11.9697   40.9534    9.0233 C.ar    0  UNK0       -0.0025
      4 C          10.8055   40.9925    8.2488 C.ar    0  UNK0       -0.0130
      5 C          10.8517   41.5110    6.9509 C.ar    0  UNK0       -0.0025
      6 C          12.0584   41.9832    6.4269 C.ar    0  UNK0        0.0144
      7 C          14.6102   43.6514    5.8733 C.2     0  UNK0        0.2261
      8 O          13.6422   44.4313    5.6716 O.2     0  UNK0       -0.2748
      9 N          14.4454   42.4393    6.6222 N.am    0  UNK0       -0.2839
     10 H          15.2518   41.8909    6.7573 H       0  UNK0        0.1549
     11 C          15.9552   44.0067    5.3348 C.3     0  UNK0        0.0854
     12 C          17.8534   43.4925    6.8725 C.3     0  UNK0        0.0005
     13 C          16.8585   44.5498    6.4310 C.3     0  UNK0        0.0096
     14 C           9.5147   40.5031    8.8153 C.3     0  UNK0        0.1113
     15 C           9.0449   41.3905    9.9260 C.2     0  UNK0        0.2269
     16 O           9.5535   41.2720   11.0715 O.2     0  UNK0       -0.2747
     17 N           8.0123   42.3571    9.7160 N.am    1  VAL1       -0.3032
     18 H           7.7211   42.9029   10.4818 H       1  VAL1        0.1495
     19 CA          7.3680   42.5764    8.4258 C.3     1  VAL1        0.1007
     20 C           6.1024   41.7250    8.3018 C.3     1  VAL1        0.1565
     21 O           4.9643   42.5254    8.1810 O.3     1  VAL1       -0.3802
     22 H           4.8742   43.0806    8.9713 H       1  VAL1        0.2105
     23 CB          7.1430   44.0722    8.1617 C.3     1  VAL1        0.0205
     24 CG1         7.9679   44.9722    9.0672 C.3     1  VAL1        0.0018
     25 CG2         5.6728   44.4352    8.2546 C.3     1  VAL1        0.0018
@<TRIPOS>BOND
     1    12    13    1
     2    13    11    1
     3    11     7    1
     4     7     9   am
     5     2     3   ar
     6     4     5   ar
     7    14     4    1
     8    14    15    1
     9    15    17   am
    10    19    17    1
    11    19    20    1
    12    19    23    1
    13    20    21    1
    14    23    24    1
    15    23    25    1
    16     6     1   ar
    17     9     1    1
    18     7     8    2
    19     1     2   ar
    20     3     4   ar
    21    15    16    2
    22     5     6   ar
    23    21    22    1
    24     9    10    1
    25    17    18    1
@<TRIPOS>MOLECULE
MolPort-008-373-247 55271854 CSSS00159787734 MCULE-2691739268 PubChem-46992885 ZINC000055271854 ZINC55271854
 25 25 0 0 0
SMALL
GASTEIGER

@<TRIPOS>ATOM
      1 C          12.5998   42.0039    7.0013 C.ar    0  UNK0        0.0503
      2 C          11.9756   42.2788    8.2278 C.ar    0  UNK0        0.0144
      3 C          10.6553   41.8800    8.4542 C.ar    0  UNK0       -0.0025
      4 C           9.9483   41.2009    7.4564 C.ar    0  UNK0       -0.0130
      5 C          10.5648   40.9284    6.2311 C.ar    0  UNK0       -0.0025
      6 C          11.8852   41.3279    6.0063 C.ar    0  UNK0        0.0144
      7 C          14.3782   43.5804    6.0389 C.2     0  UNK0        0.2261
      8 O          13.5459   44.4232    5.6114 O.2     0  UNK0       -0.2748
      9 N          13.9516   42.3991    6.7316 N.am    0  UNK0       -0.2839
     10 H          14.6603   41.7973    7.0555 H       0  UNK0        0.1549
     11 C          15.8348   43.8271    5.8326 C.3     0  UNK0        0.0854
     12 C          17.4109   43.0372    7.6002 C.3     0  UNK0        0.0005
     13 C          16.5222   44.1789    7.1428 C.3     0  UNK0        0.0096
     14 C           8.5334   40.7894    7.6919 C.3     0  UNK0        0.1113
     15 C           7.6308   41.3384    6.6309 C.2     0  UNK0        0.2269
     16 O           7.7383   40.9204    5.4482 O.2     0  UNK0       -0.2747
     17 N           6.6615   42.3459    6.9310 N.am    1  VAL1       -0.3032
     18 H           6.1054   42.6921    6.1961 H       1  VAL1        0.1495
     19 CA          6.4541   42.8874    8.2694 C.3     1  VAL1        0.1007
     20 C           6.2356   44.4010    8.2125 C.3     1  VAL1        0.1565
     21 O           6.9805   45.0568    9.1951 O.3     1  VAL1       -0.3802
     22 H           6.7024   44.7479   10.0716 H       1  VAL1        0.2105
     23 CB          5.3496   42.1244    9.0149 C.3     1  VAL1        0.0205
     24 CG1         4.1488   42.9906    9.3585 C.3     1  VAL1        0.0018
     25 CG2         5.8885   41.4507   10.2629 C.3     1  VAL1        0.0018
@<TRIPOS>BOND
     1    12    13    1
     2    13    11    1
     3    11     7    1
     4     7     9   am
     5     2     3   ar
     6     4     5   ar
     7    14     4    1
     8    14    15    1
     9    15    17   am
    10    19    17    1
    11    19    20    1
    12    19    23    1
    13    20    21    1
    14    23    24    1
    15    23    25    1
    16     6     1   ar
    17     9     1    1
    18     7     8    2
    19     1     2   ar
    20     3     4   ar
    21    15    16    2
    22     5     6   ar
    23    21    22    1
    24     9    10    1
    25    17    18    1
@<TRIPOS>MOLECULE
MolPort-008-373-247 55271854 CSSS00159787734 MCULE-2691739268 PubChem-46992885 ZINC000055271854 ZINC55271854
 25 25 0 0 0
SMALL
GASTEIGER

@<TRIPOS>ATOM
      1 C          10.8265   41.8894    8.2652 C.ar    0  UNK0        0.0503
      2 C          10.1572   42.6584    9.2297 C.ar    0  UNK0        0.0144
      3 C           8.8732   43.1490    8.9763 C.ar    0  UNK0       -0.0025
      4 C           8.2464   42.8728    7.7567 C.ar    0  UNK0       -0.0130
      5 C           8.9110   42.1105    6.7909 C.ar    0  UNK0       -0.0025
      6 C          10.1951   41.6207    7.0458 C.ar    0  UNK0        0.0144
      7 C          13.3767   41.9218    8.0020 C.2     0  UNK0        0.2261
      8 O          13.3951   42.9816    7.3220 O.2     0  UNK0       -0.2748
      9 N          12.1448   41.3711    8.4881 N.am    0  UNK0       -0.2839
     10 H          12.2112   40.5525    9.0309 H       0  UNK0        0.1549
     11 C          14.6642   41.2384    8.3191 C.3     0  UNK0        0.0854
     12 C          17.0719   41.6866    8.8033 C.3     0  UNK0        0.0005
     13 C          15.8515   42.1420    8.0250 C.3     0  UNK0        0.0096
     14 C           6.8822   43.4101    7.4795 C.3     0  UNK0        0.1113
     15 C           6.3230   44.1031    8.6833 C.2     0  UNK0        0.2269
     16 O           6.8085   45.2071    9.0444 O.2     0  UNK0       -0.2747
     17 N           5.2607   43.5238    9.4451 N.am    1  VAL1       -0.3032
     18 H           4.9407   44.0060   10.2416 H       1  VAL1        0.1495
     19 CA          4.6264   42.2554    9.1034 C.3     1  VAL1        0.1007
     20 C           5.6713   41.1442    8.9803 C.3     1  VAL1        0.1565
     21 O           5.4813   40.3982    7.8150 O.3     1  VAL1       -0.3802
     22 H           4.6050   39.9828    7.8364 H       1  VAL1        0.2105
     23 CB          3.4775   41.9285   10.0683 C.3     1  VAL1        0.0205
     24 CG1         3.9245   41.1398   11.2883 C.3     1  VAL1        0.0018
     25 CG2         2.3475   41.2067    9.3583 C.3     1  VAL1        0.0018
@<TRIPOS>BOND
     1    12    13    1
     2    13    11    1
     3    11     7    1
     4     7     9   am
     5     2     3   ar
     6     4     5   ar
     7    14     4    1
     8    14    15    1
     9    15    17   am
    10    19    17    1
    11    19    20    1
    12    19    23    1
    13    20    21    1
    14    23    24    1
    15    23    25    1
    16     6     1   ar
    17     9     1    1
    18     7     8    2
    19     1     2   ar
    20     3     4   ar
    21    15    16    2
    22     5     6   ar
    23    21    22    1
    24     9    10    1
    25    17    18    1
@<TRIPOS>MOLECULE
MolPort-008-373-247 55271854 CSSS00159787734 MCULE-2691739268 PubChem-46992885 ZINC000055271854 ZINC55271854
 25 25 0 0 0
SMALL
GASTEIGER

@<TRIPOS>ATOM
      1 C          14.0442   42.0134    7.2013 C.ar    0  UNK0        0.0503
      2 C          13.0172   42.3948    6.3242 C.ar    0  UNK0        0.0144
      3 C          11.7253   41.8859    6.4846 C.ar    0  UNK0       -0.0025
      4 C          11.4490   40.9927    7.5250 C.ar    0  UNK0       -0.0130
      5 C          12.4701   40.6066    8.3989 C.ar    0  UNK0       -0.0025
      6 C          13.7615   41.1164    8.2372 C.ar    0  UNK0        0.0144
      7 C          15.7691   43.8220    6.6286 C.2     0  UNK0        0.2261
      8 O          14.9087   44.6933    6.3347 O.2     0  UNK0       -0.2748
      9 N          15.3819   42.5124    7.0671 N.am    0  UNK0       -0.2839
     10 H          16.1099   41.8919    7.3000 H       0  UNK0        0.1549
     11 C          17.2170   44.1679    6.5329 C.3     0  UNK0        0.0854
     12 C          18.0222   42.5240    8.2302 C.3     0  UNK0        0.0005
     13 C          17.9119   43.9949    7.8744 C.3     0  UNK0        0.0096
     14 C          10.0737   40.4367    7.6866 C.3     0  UNK0        0.1113
     15 C          10.0666   38.9534    7.4825 C.2     0  UNK0        0.2269
     16 O          10.6481   38.2101    8.3157 O.2     0  UNK0       -0.2747
     17 N           9.4294   38.3648    6.3457 N.am    1  VAL1       -0.3032
     18 H           9.4698   37.3865    6.2426 H       1  VAL1        0.1495
     19 CA          8.7227   39.1385    5.3310 C.3     1  VAL1        0.1007
     20 C           8.4061   40.5443    5.8462 C.3     1  VAL1        0.1565
     21 O           7.1202   40.9418    5.4734 O.3     1  VAL1       -0.3802
     22 H           7.0542   40.9568    4.5058 H       1  VAL1        0.2105
     23 CB          9.4728   39.1184    3.9913 C.3     1  VAL1        0.0205
     24 CG1         9.8958   37.7232    3.5613 C.3     1  VAL1        0.0018
     25 CG2        10.6706   40.0493    4.0140 C.3     1  VAL1        0.0018
@<TRIPOS>BOND
     1    12    13    1
     2    13    11    1
     3    11     7    1
     4     7     9   am
     5     2     3   ar
     6     4     5   ar
     7    14     4    1
     8    14    15    1
     9    15    17   am
    10    19    17    1
    11    19    20    1
    12    19    23    1
    13    20    21    1
    14    23    24    1
    15    23    25    1
    16     6     1   ar
    17     9     1    1
    18     7     8    2
    19     1     2   ar
    20     3     4   ar
    21    15    16    2
    22     5     6   ar
    23    21    22    1
    24     9    10    1
    25    17    18    1
@<TRIPOS>MOLECULE
MolPort-008-373-247 55271854 CSSS00159787734 MCULE-2691739268 PubChem-46992885 ZINC000055271854 ZINC55271854
 25 25 0 0 0
SMALL
GASTEIGER

@<TRIPOS>ATOM
      1 C          13.3774   41.6821    7.2562 C.ar    0  UNK0        0.0503
      2 C          13.2281   41.2081    8.5686 C.ar    0  UNK0        0.0144
      3 C          12.0316   40.6086    8.9719 C.ar    0  UNK0       -0.0025
      4 C          10.9747   40.4760    8.0653 C.ar    0  UNK0       -0.0130
      5 C          11.1175   40.9505    6.7576 C.ar    0  UNK0       -0.0025
      6 C          12.3146   41.5499    6.3559 C.ar    0  UNK0        0.0144
      7 C          14.7059   43.5628    6.1283 C.2     0  UNK0        0.2261
      8 O          13.6930   44.2702    5.8842 O.2     0  UNK0       -0.2748
      9 N          14.5886   42.3045    6.8067 N.am    0  UNK0       -0.2839
     10 H          15.4262   41.8178    6.9818 H       0  UNK0        0.1549
     11 C          16.0529   44.0541    5.7165 C.3     0  UNK0        0.0854
     12 C          17.7950   43.1298    7.2471 C.3     0  UNK0        0.0005
     13 C          16.9284   44.3339    6.9280 C.3     0  UNK0        0.0096
     14 C           9.6916   39.8507    8.5002 C.3     0  UNK0        0.1113
     15 C           8.5260   40.7303    8.1689 C.2     0  UNK0        0.2269
     16 O           7.8588   40.5082    7.1246 O.2     0  UNK0       -0.2747
     17 N           8.1684   41.8332    9.0057 N.am    1  VAL1       -0.3032
     18 H           7.4077   42.3967    8.7354 H       1  VAL1        0.1495
     19 CA          8.8721   42.1666   10.2391 C.3     1  VAL1        0.1007
     20 C           9.5224   43.5479   10.1341 C.3     1  VAL1        0.1565
     21 O          10.6746   43.6254   10.9196 O.3     1  VAL1       -0.3802
     22 H          10.4429   43.4747   11.8493 H       1  VAL1        0.2105
     23 CB          7.9622   41.9960   11.4642 C.3     1  VAL1        0.0205
     24 CG1         8.5788   41.1349   12.5544 C.3     1  VAL1        0.0018
     25 CG2         6.6007   41.4543   11.0707 C.3     1  VAL1        0.0018
@<TRIPOS>BOND
     1    12    13    1
     2    13    11    1
     3    11     7    1
     4     7     9   am
     5     2     3   ar
     6     4     5   ar
     7    14     4    1
     8    14    15    1
     9    15    17   am
    10    19    17    1
    11    19    20    1
    12    19    23    1
    13    20    21    1
    14    23    24    1
    15    23    25    1
    16     6     1   ar
    17     9     1    1
    18     7     8    2
    19     1     2   ar
    20     3     4   ar
    21    15    16    2
    22     5     6   ar
    23    21    22    1
    24     9    10    1
    25    17    18    1
@<TRIPOS>MOLECULE
MolPort-008-373-247 55271854 CSSS00159787734 MCULE-2691739268 PubChem-46992885 ZINC000055271854 ZINC55271854
 25 25 0 0 0
SMALL
GASTEIGER

@<TRIPOS>ATOM
      1 C          13.5622   40.0018   10.1743 C.ar    0  UNK0        0.0503
      2 C          12.3719   40.0255   10.9173 C.ar    0  UNK0        0.0144
      3 C          11.2812   40.7829   10.4811 C.ar    0  UNK0       -0.0025
      4 C          11.3708   41.5217    9.2967 C.ar    0  UNK0       -0.0130
      5 C          12.5563   41.5044    8.5552 C.ar    0  UNK0       -0.0025
      6 C          13.6462   40.7465    8.9927 C.ar    0  UNK0        0.0144
      7 C          16.0585   39.4165   10.1584 C.2     0  UNK0        0.2261
      8 O          16.3715   40.3292    9.3491 O.2     0  UNK0       -0.2748
      9 N          14.7026   39.2387   10.5910 N.am    0  UNK0       -0.2839
     10 H          14.5377   38.5182   11.2413 H       0  UNK0        0.1549
     11 C          17.1237   38.5158   10.6868 C.3     0  UNK0        0.0854
     12 C          19.5114   38.1449   10.0597 C.3     0  UNK0        0.0005
     13 C          18.4968   39.1568   10.5589 C.3     0  UNK0        0.0096
     14 C          10.2122   42.3433    8.8393 C.3     0  UNK0        0.1113
     15 C           9.7439   43.2625    9.9245 C.2     0  UNK0        0.2269
     16 O          10.5851   43.9507   10.5600 O.2     0  UNK0       -0.2747
     17 N           8.3593   43.3582   10.2686 N.am    1  VAL1       -0.3032
     18 H           8.1016   43.9600   11.0039 H       1  VAL1        0.1495
     19 CA          7.3089   42.6105    9.5866 C.3     1  VAL1        0.1007
     20 C           6.5672   41.7014   10.5692 C.3     1  VAL1        0.1565
     21 O           6.8085   42.0822   11.8911 O.3     1  VAL1       -0.3802
     22 H           7.7576   42.0135   12.0792 H       1  VAL1        0.2105
     23 CB          6.3908   43.5437    8.7841 C.3     1  VAL1        0.0205
     24 CG1         4.9130   43.2510    8.9860 C.3     1  VAL1        0.0018
     25 CG2         6.7358   43.5228    7.3068 C.3     1  VAL1        0.0018
@<TRIPOS>BOND
     1    12    13    1
     2    13    11    1
     3    11     7    1
     4     7     9   am
     5     2     3   ar
     6     4     5   ar
     7    14     4    1
     8    14    15    1
     9    15    17   am
    10    19    17    1
    11    19    20    1
    12    19    23    1
    13    20    21    1
    14    23    24    1
    15    23    25    1
    16     6     1   ar
    17     9     1    1
    18     7     8    2
    19     1     2   ar
    20     3     4   ar
    21    15    16    2
    22     5     6   ar
    23    21    22    1
    24     9    10    1
    25    17    18    1
@<TRIPOS>MOLECULE
MolPort-008-373-247 55271854 CSSS00159787734 MCULE-2691739268 PubChem-46992885 ZINC000055271854 ZINC55271854
 25 25 0 0 0
SMALL
GASTEIGER

@<TRIPOS>ATOM
      1 C          11.8724   41.7369    6.7446 C.ar    0  UNK0        0.0503
      2 C          11.3721   40.8332    5.7946 C.ar    0  UNK0        0.0144
      3 C          10.0896   40.2961    5.9366 C.ar    0  UNK0       -0.0025
      4 C           9.2953   40.6598    7.0290 C.ar    0  UNK0       -0.0130
      5 C           9.7911   41.5568    7.9804 C.ar    0  UNK0       -0.0025
      6 C          11.0739   42.0931    7.8370 C.ar    0  UNK0        0.0144
      7 C          14.3218   42.0062    7.4533 C.2     0  UNK0        0.2261
      8 O          14.2566   41.1472    8.3719 O.2     0  UNK0       -0.2748
      9 N          13.1836   42.3069    6.6339 N.am    0  UNK0       -0.2839
     10 H          13.3162   42.9737    5.9219 H       0  UNK0        0.1549
     11 C          15.6134   42.7102    7.2058 C.3     0  UNK0        0.0854
     12 C          17.6567   43.4907    8.4090 C.3     0  UNK0        0.0005
     13 C          16.6347   42.3764    8.2819 C.3     0  UNK0        0.0096
     14 C           7.9323   40.0740    7.1895 C.3     0  UNK0        0.1113
     15 C           6.8842   40.9966    6.6490 C.2     0  UNK0        0.2269
     16 O           6.8837   41.2842    5.4234 O.2     0  UNK0       -0.2747
     17 N           5.8947   41.5758    7.5035 N.am    1  VAL1       -0.3032
     18 H           5.2393   42.1939    7.1066 H       1  VAL1        0.1495
     19 CA          5.8061   41.2982    8.9328 C.3     1  VAL1        0.1007
     20 C           6.7624   42.1981    9.7187 C.3     1  VAL1        0.1565
     21 O           7.3550   41.5046   10.7762 O.3     1  VAL1       -0.3802
     22 H           6.6670   41.1957   11.3862 H       1  VAL1        0.2105
     23 CB          4.3519   41.3534    9.4227 C.3     1  VAL1        0.0205
     24 CG1         3.8447   42.7699    9.6386 C.3     1  VAL1        0.0018
     25 CG2         4.1602   40.5269   10.6805 C.3     1  VAL1        0.0018
@<TRIPOS>BOND
     1    12    13    1
     2    13    11    1
     3    11     7    1
     4     7     9   am
     5     2     3   ar
     6     4     5   ar
     7    14     4    1
     8    14    15    1
     9    15    17   am
    10    19    17    1
    11    19    20    1
    12    19    23    1
    13    20    21    1
    14    23    24    1
    15    23    25    1
    16     6     1   ar
    17     9     1    1
    18     7     8    2
    19     1     2   ar
    20     3     4   ar
    21    15    16    2
    22     5     6   ar
    23    21    22    1
    24     9    10    1
    25    17    18    1
