@<TRIPOS>MOLECULE
MolPort-001-939-484 100542660 MCULE-9037895478 PubChem-3112361 ZINC000100542660
 22 23 0 0 0
SMALL
GASTEIGER

@<TRIPOS>ATOM
      1 C           9.3850   41.2772    6.2776 C.ar    1  UNL1        0.1123
      2 C          11.7567   41.5002    6.4871 C.ar    1  UNL1        0.1880
      3 N          10.0452   41.0290    5.1254 N.ar    1  UNL1       -0.1440
      4 N          11.3664   41.1506    5.2414 N.ar    1  UNL1       -0.1256
      5 S          10.4460   41.6804    7.5256 S.2     1  UNL1       -0.0347
      6 C          13.8867   42.8804    6.6216 C.2     1  UNL1        0.2509
      7 N          13.1180   41.6982    6.8802 N.am    1  UNL1       -0.2592
      8 O          13.3731   43.8525    6.0030 O.2     1  UNL1       -0.2698
      9 H          13.5613   40.9657    7.3661 H       1  UNL1        0.1571
     10 C          15.2845   42.9605    7.0811 C.ar    1  UNL1        0.0537
     11 C          16.1465   43.9408    6.5668 C.ar    1  UNL1        0.0045
     12 C          17.4725   44.0158    7.0034 C.ar    1  UNL1        0.0001
     13 C          17.9464   43.1113    7.9574 C.ar    1  UNL1        0.0000
     14 C          17.0946   42.1318    8.4749 C.ar    1  UNL1        0.0001
     15 C          15.7687   42.0567    8.0383 C.ar    1  UNL1        0.0045
     16 C           7.9023   41.2263    6.3982 C.3     1  UNL1        0.0545
     17 C           7.5075   40.6413    7.7431 C.3     1  UNL1        0.0069
     18 C           6.6405   41.6219    8.5176 C.3     1  UNL1        0.0004
     19 C           5.1901   41.1577    8.5939 C.3     1  UNL1        0.0000
     20 C           4.4654   41.7908    9.7716 C.3     1  UNL1        0.0000
     21 C           3.9268   40.1581   11.5515 C.3     1  UNL1        0.0000
     22 C           3.4046   40.8504   10.3109 C.3     1  UNL1        0.0000
@<TRIPOS>BOND
     1    21    22    1
     2    22    20    1
     3    20    19    1
     4    19    18    1
     5    18    17    1
     6    17    16    1
     7    16     1    1
     8     1     5   ar
     9     2     7    1
    10     2     5   ar
    11     6    10    1
    12    11    12   ar
    13    13    14   ar
    14    15    10   ar
    15     3     4   ar
    16     7     6   am
    17     1     3   ar
    18     2     4   ar
    19     6     8    2
    20    10    11   ar
    21    12    13   ar
    22    14    15   ar
    23     7     9    1
@<TRIPOS>MOLECULE
MolPort-001-939-484 100542660 MCULE-9037895478 PubChem-3112361 ZINC000100542660
 22 23 0 0 0
SMALL
GASTEIGER

@<TRIPOS>ATOM
      1 C           4.1858   42.0280   10.0962 C.ar    1  UNL1        0.1123
      2 C           6.5135   41.6485    9.7009 C.ar    1  UNL1        0.1880
      3 N           4.6683   42.7333    9.0499 N.ar    1  UNL1       -0.1440
      4 N           5.9642   42.5210    8.8273 N.ar    1  UNL1       -0.1256
      5 S           5.3872   41.0892   10.8180 S.2     1  UNL1       -0.0347
      6 C           8.9767   42.0209   10.2050 C.2     1  UNL1        0.2509
      7 N           7.8869   41.2479    9.6852 N.am    1  UNL1       -0.2592
      8 O           8.7659   43.1494   10.7278 O.2     1  UNL1       -0.2698
      9 H           8.1002   40.3734    9.2864 H       1  UNL1        0.1571
     10 C          10.3507   41.4941   10.1282 C.ar    1  UNL1        0.0537
     11 C          10.8303   40.6139   11.1100 C.ar    1  UNL1        0.0045
     12 C          12.1340   40.1147   11.0361 C.ar    1  UNL1        0.0001
     13 C          12.9680   40.4919    9.9802 C.ar    1  UNL1        0.0000
     14 C          12.4985   41.3681    8.9980 C.ar    1  UNL1        0.0001
     15 C          11.1948   41.8673    9.0718 C.ar    1  UNL1        0.0045
     16 C           2.7726   42.1102   10.5562 C.3     1  UNL1        0.0545
     17 C           2.7111   42.0288   12.0716 C.3     1  UNL1        0.0069
     18 C           1.3712   42.5390   12.5793 C.3     1  UNL1        0.0004
     19 C           1.0897   42.0714   14.0030 C.3     1  UNL1        0.0000
     20 C          -0.4022   42.0551   14.2976 C.3     1  UNL1        0.0000
     21 C           0.4987   43.2747   16.2533 C.3     1  UNL1        0.0000
     22 C          -0.6644   42.4551   15.7370 C.3     1  UNL1        0.0000
@<TRIPOS>BOND
     1    21    22    1
     2    22    20    1
     3    20    19    1
     4    19    18    1
     5    18    17    1
     6    17    16    1
     7    16     1    1
     8     1     5   ar
     9     2     7    1
    10     2     5   ar
    11     6    10    1
    12    11    12   ar
    13    13    14   ar
    14    15    10   ar
    15     3     4   ar
    16     7     6   am
    17     1     3   ar
    18     2     4   ar
    19     6     8    2
    20    10    11   ar
    21    12    13   ar
    22    14    15   ar
    23     7     9    1
@<TRIPOS>MOLECULE
MolPort-001-939-484 100542660 MCULE-9037895478 PubChem-3112361 ZINC000100542660
 22 23 0 0 0
SMALL
GASTEIGER

@<TRIPOS>ATOM
      1 C           9.4075   41.9720    8.4079 C.ar    1  UNL1        0.1123
      2 C          11.7458   41.9774    7.9069 C.ar    1  UNL1        0.1880
      3 N           9.7181   41.2393    7.3163 N.ar    1  UNL1       -0.1440
      4 N          11.0204   41.2395    7.0376 N.ar    1  UNL1       -0.1256
      5 S          10.7781   42.6816    9.0887 S.2     1  UNL1       -0.0347
      6 C          13.8451   43.0162    6.9201 C.2     1  UNL1        0.2509
      7 N          13.1646   42.1460    7.8340 N.am    1  UNL1       -0.2592
      8 O          13.1916   43.7103    6.0940 O.2     1  UNL1       -0.2698
      9 H          13.7166   41.6239    8.4600 H       1  UNL1        0.1571
     10 C          15.3160   43.1003    6.9461 C.ar    1  UNL1        0.0537
     11 C          15.9984   43.9032    6.0197 C.ar    1  UNL1        0.0045
     12 C          17.3939   43.9823    6.0452 C.ar    1  UNL1        0.0001
     13 C          18.1175   43.2591    6.9972 C.ar    1  UNL1        0.0000
     14 C          17.4459   42.4570    7.9237 C.ar    1  UNL1        0.0001
     15 C          16.0504   42.3779    7.8982 C.ar    1  UNL1        0.0045
     16 C           8.0167   42.1435    8.9096 C.3     1  UNL1        0.0545
     17 C           7.0621   42.3417    7.7449 C.3     1  UNL1        0.0069
     18 C           6.0436   43.4240    8.0682 C.3     1  UNL1        0.0004
     19 C           5.2812   43.1187    9.3529 C.3     1  UNL1        0.0000
     20 C           3.7782   43.1190    9.1204 C.3     1  UNL1        0.0000
     21 C           4.0659   40.7854    9.8921 C.3     1  UNL1        0.0000
     22 C           3.1248   41.9705    9.8652 C.3     1  UNL1        0.0000
@<TRIPOS>BOND
     1    21    22    1
     2    22    20    1
     3    20    19    1
     4    19    18    1
     5    18    17    1
     6    17    16    1
     7    16     1    1
     8     1     5   ar
     9     2     7    1
    10     2     5   ar
    11     6    10    1
    12    11    12   ar
    13    13    14   ar
    14    15    10   ar
    15     3     4   ar
    16     7     6   am
    17     1     3   ar
    18     2     4   ar
    19     6     8    2
    20    10    11   ar
    21    12    13   ar
    22    14    15   ar
    23     7     9    1
@<TRIPOS>MOLECULE
MolPort-001-939-484 100542660 MCULE-9037895478 PubChem-3112361 ZINC000100542660
 22 23 0 0 0
SMALL
GASTEIGER

@<TRIPOS>ATOM
      1 C           9.3011   40.7728    6.1419 C.ar    1  UNL1        0.1123
      2 C          11.6387   41.1814    6.4371 C.ar    1  UNL1        0.1880
      3 N           9.9866   40.7974    4.9781 N.ar    1  UNL1       -0.1440
      4 N          11.2891   41.0226    5.1413 N.ar    1  UNL1       -0.1256
      5 S          10.3128   41.0480    7.4634 S.2     1  UNL1       -0.0347
      6 C          13.6816   42.6691    6.7076 C.2     1  UNL1        0.2509
      7 N          12.9726   41.4361    6.8874 N.am    1  UNL1       -0.2592
      8 O          13.1351   43.6382    6.1131 O.2     1  UNL1       -0.2698
      9 H          13.4399   40.7080    7.3571 H       1  UNL1        0.1571
     10 C          15.0563   42.8052    7.2204 C.ar    1  UNL1        0.0537
     11 C          15.8488   43.9013    6.8473 C.ar    1  UNL1        0.0045
     12 C          17.1529   44.0294    7.3343 C.ar    1  UNL1        0.0001
     13 C          17.6744   43.0625    8.1981 C.ar    1  UNL1        0.0000
     14 C          16.8921   41.9677    8.5750 C.ar    1  UNL1        0.0001
     15 C          15.5880   41.8395    8.0879 C.ar    1  UNL1        0.0045
     16 C           7.8301   40.5594    6.2206 C.3     1  UNL1        0.0545
     17 C           7.1916   41.6355    7.0814 C.3     1  UNL1        0.0069
     18 C           7.0694   42.9374    6.3045 C.3     1  UNL1        0.0004
     19 C           6.3593   44.0161    7.1151 C.3     1  UNL1        0.0000
     20 C           5.8952   43.4838    8.4620 C.3     1  UNL1        0.0000
     21 C           4.0015   44.9061    7.7442 C.3     1  UNL1        0.0000
     22 C           4.4262   43.7936    8.6786 C.3     1  UNL1        0.0000
@<TRIPOS>BOND
     1    21    22    1
     2    22    20    1
     3    20    19    1
     4    19    18    1
     5    18    17    1
     6    17    16    1
     7    16     1    1
     8     1     5   ar
     9     2     7    1
    10     2     5   ar
    11     6    10    1
    12    11    12   ar
    13    13    14   ar
    14    15    10   ar
    15     3     4   ar
    16     7     6   am
    17     1     3   ar
    18     2     4   ar
    19     6     8    2
    20    10    11   ar
    21    12    13   ar
    22    14    15   ar
    23     7     9    1
@<TRIPOS>MOLECULE
MolPort-001-939-484 100542660 MCULE-9037895478 PubChem-3112361 ZINC000100542660
 22 23 0 0 0
SMALL
GASTEIGER

@<TRIPOS>ATOM
      1 C           9.5680   42.2232    8.7950 C.ar    1  UNL1        0.1123
      2 C          11.8744   42.1809    8.1649 C.ar    1  UNL1        0.1880
      3 N           9.8088   41.4491    7.7144 N.ar    1  UNL1       -0.1440
      4 N          11.0934   41.4228    7.3638 N.ar    1  UNL1       -0.1256
      5 S          10.9823   42.9381    9.3731 S.2     1  UNL1       -0.0347
      6 C          13.9270   43.1154    6.9929 C.2     1  UNL1        0.2509
      7 N          13.2887   42.3286    8.0072 N.am    1  UNL1       -0.2592
      8 O          13.2366   43.7474    6.1472 O.2     1  UNL1       -0.2698
      9 H          13.8687   41.8529    8.6449 H       1  UNL1        0.1571
     10 C          15.3978   43.1862    6.9379 C.ar    1  UNL1        0.0537
     11 C          16.0365   43.9286    5.9332 C.ar    1  UNL1        0.0045
     12 C          17.4320   43.9951    5.8820 C.ar    1  UNL1        0.0001
     13 C          18.1993   43.3198    6.8349 C.ar    1  UNL1        0.0000
     14 C          17.5714   42.5781    7.8391 C.ar    1  UNL1        0.0001
     15 C          16.1759   42.5115    7.8903 C.ar    1  UNL1        0.0045
     16 C           8.2094   42.4298    9.3670 C.3     1  UNL1        0.0545
     17 C           7.3465   41.2047    9.1190 C.3     1  UNL1        0.0069
     18 C           6.2352   41.5260    8.1315 C.3     1  UNL1        0.0004
     19 C           6.6611   41.2570    6.6923 C.3     1  UNL1        0.0000
     20 C           6.5426   39.7812    6.3446 C.3     1  UNL1        0.0000
     21 C           8.6758   39.3372    5.1714 C.3     1  UNL1        0.0000
     22 C           7.8944   39.1008    6.4460 C.3     1  UNL1        0.0000
@<TRIPOS>BOND
     1    21    22    1
     2    22    20    1
     3    20    19    1
     4    19    18    1
     5    18    17    1
     6    17    16    1
     7    16     1    1
     8     1     5   ar
     9     2     7    1
    10     2     5   ar
    11     6    10    1
    12    11    12   ar
    13    13    14   ar
    14    15    10   ar
    15     3     4   ar
    16     7     6   am
    17     1     3   ar
    18     2     4   ar
    19     6     8    2
    20    10    11   ar
    21    12    13   ar
    22    14    15   ar
    23     7     9    1
@<TRIPOS>MOLECULE
MolPort-001-939-484 100542660 MCULE-9037895478 PubChem-3112361 ZINC000100542660
 22 23 0 0 0
SMALL
GASTEIGER

@<TRIPOS>ATOM
      1 C          10.6849   41.5469    6.4205 C.ar    1  UNL1        0.1123
      2 C           8.4043   41.7198    7.1188 C.ar    1  UNL1        0.1880
      3 N           9.8265   41.7197    5.3918 N.ar    1  UNL1       -0.1440
      4 N           8.5562   41.8186    5.7796 N.ar    1  UNL1       -0.1256
      5 S           9.8769   41.4979    7.9006 S.2     1  UNL1       -0.0347
      6 C           6.9710   41.7450    9.2176 C.2     1  UNL1        0.2509
      7 N           7.1457   41.7910    7.7953 N.am    1  UNL1       -0.2592
      8 O           7.9701   41.6337    9.9796 O.2     1  UNL1       -0.2698
      9 H           6.3367   41.8782    7.2411 H       1  UNL1        0.1571
     10 C           5.6167   41.8283    9.7924 C.ar    1  UNL1        0.0537
     11 C           5.3269   41.2144   11.0203 C.ar    1  UNL1        0.0045
     12 C           4.0417   41.2941   11.5648 C.ar    1  UNL1        0.0001
     13 C           3.0368   41.9881   10.8855 C.ar    1  UNL1        0.0000
     14 C           3.3168   42.6025    9.6620 C.ar    1  UNL1        0.0001
     15 C           4.6018   42.5228    9.1176 C.ar    1  UNL1        0.0045
     16 C          12.1542   41.3893    6.2424 C.3     1  UNL1        0.0545
     17 C          12.8918   42.4827    6.9957 C.3     1  UNL1        0.0069
     18 C          14.2992   42.6536    6.4451 C.3     1  UNL1        0.0004
     19 C          14.4389   43.9389    5.6367 C.3     1  UNL1        0.0000
     20 C          15.6113   44.7765    6.1233 C.3     1  UNL1        0.0000
     21 C          17.7900   43.9672    6.9732 C.3     1  UNL1        0.0000
     22 C          16.3126   44.0888    7.2791 C.3     1  UNL1        0.0000
@<TRIPOS>BOND
     1    21    22    1
     2    22    20    1
     3    20    19    1
     4    19    18    1
     5    18    17    1
     6    17    16    1
     7    16     1    1
     8     1     5   ar
     9     2     7    1
    10     2     5   ar
    11     6    10    1
    12    11    12   ar
    13    13    14   ar
    14    15    10   ar
    15     3     4   ar
    16     7     6   am
    17     1     3   ar
    18     2     4   ar
    19     6     8    2
    20    10    11   ar
    21    12    13   ar
    22    14    15   ar
    23     7     9    1
@<TRIPOS>MOLECULE
MolPort-001-939-484 100542660 MCULE-9037895478 PubChem-3112361 ZINC000100542660
 22 23 0 0 0
SMALL
GASTEIGER

@<TRIPOS>ATOM
      1 C          12.1720   42.0311    7.7086 C.ar    1  UNL1        0.1123
      2 C           9.8058   42.0118    8.0538 C.ar    1  UNL1        0.1880
      3 N          11.4756   41.7194    6.5938 N.ar    1  UNL1       -0.1440
      4 N          10.1574   41.7107    6.7841 N.ar    1  UNL1       -0.1256
      5 S          11.1493   42.3079    9.0214 S.2     1  UNL1       -0.0347
      6 C           7.3073   42.3216    7.7051 C.2     1  UNL1        0.2509
      7 N           8.4561   42.0697    8.5249 N.am    1  UNL1       -0.2592
      8 O           7.4384   42.5144    6.4653 O.2     1  UNL1       -0.2698
      9 H           8.3045   41.9253    9.4869 H       1  UNL1        0.1571
     10 C           5.9659   42.3554    8.3140 C.ar    1  UNL1        0.0537
     11 C           5.3022   43.5770    8.5038 C.ar    1  UNL1        0.0045
     12 C           4.0296   43.6080    9.0817 C.ar    1  UNL1        0.0001
     13 C           3.4111   42.4179    9.4740 C.ar    1  UNL1        0.0000
     14 C           4.0649   41.1968    9.2887 C.ar    1  UNL1        0.0001
     15 C           5.3375   41.1658    8.7109 C.ar    1  UNL1        0.0045
     16 C          13.6587   42.0858    7.7560 C.3     1  UNL1        0.0545
     17 C          14.2101   42.4860    6.3986 C.3     1  UNL1        0.0069
     18 C          14.0985   43.9898    6.1998 C.3     1  UNL1        0.0004
     19 C          15.4617   44.6708    6.2535 C.3     1  UNL1        0.0000
     20 C          16.5685   43.6749    6.5637 C.3     1  UNL1        0.0000
     21 C          17.3757   42.6543    8.6686 C.3     1  UNL1        0.0000
     22 C          17.1715   43.9576    7.9265 C.3     1  UNL1        0.0000
@<TRIPOS>BOND
     1    21    22    1
     2    22    20    1
     3    20    19    1
     4    19    18    1
     5    18    17    1
     6    17    16    1
     7    16     1    1
     8     1     5   ar
     9     2     7    1
    10     2     5   ar
    11     6    10    1
    12    11    12   ar
    13    13    14   ar
    14    15    10   ar
    15     3     4   ar
    16     7     6   am
    17     1     3   ar
    18     2     4   ar
    19     6     8    2
    20    10    11   ar
    21    12    13   ar
    22    14    15   ar
    23     7     9    1
@<TRIPOS>MOLECULE
MolPort-001-939-484 100542660 MCULE-9037895478 PubChem-3112361 ZINC000100542660
 22 23 0 0 0
SMALL
GASTEIGER

@<TRIPOS>ATOM
      1 C           8.2869   40.4640    5.9997 C.ar    1  UNL1        0.1123
      2 C          10.4072   41.5223    5.6789 C.ar    1  UNL1        0.1880
      3 N           8.8721   40.1353    4.8273 N.ar    1  UNL1       -0.1440
      4 N          10.0542   40.7222    4.6486 N.ar    1  UNL1       -0.1256
      5 S           9.2372   41.5387    6.8872 S.2     1  UNL1       -0.0347
      6 C          12.7631   41.9289    6.5415 C.2     1  UNL1        0.2509
      7 N          11.6253   42.2703    5.7390 N.am    1  UNL1       -0.2592
      8 O          12.7435   40.8998    7.2708 O.2     1  UNL1       -0.2698
      9 H          11.6869   43.0826    5.1862 H       1  UNL1        0.1571
     10 C          13.9622   42.7849    6.5143 C.ar    1  UNL1        0.0537
     11 C          15.0978   42.4414    7.2634 C.ar    1  UNL1        0.0045
     12 C          16.2349   43.2542    7.2369 C.ar    1  UNL1        0.0001
     13 C          16.2451   44.4165    6.4611 C.ar    1  UNL1        0.0000
     14 C          15.1185   44.7661    5.7119 C.ar    1  UNL1        0.0001
     15 C          13.9814   43.9534    5.7384 C.ar    1  UNL1        0.0045
     16 C           6.9533   39.9536    6.4198 C.3     1  UNL1        0.0545
     17 C           6.2114   41.0184    7.2088 C.3     1  UNL1        0.0069
     18 C           6.5915   40.9539    8.6801 C.3     1  UNL1        0.0004
     19 C           5.4003   41.2455    9.5862 C.3     1  UNL1        0.0000
     20 C           4.9380   42.6878    9.4490 C.3     1  UNL1        0.0000
     21 C           2.8497   41.3620    9.3769 C.3     1  UNL1        0.0000
     22 C           3.4230   42.7616    9.4363 C.3     1  UNL1        0.0000
@<TRIPOS>BOND
     1    21    22    1
     2    22    20    1
     3    20    19    1
     4    19    18    1
     5    18    17    1
     6    17    16    1
     7    16     1    1
     8     1     5   ar
     9     2     7    1
    10     2     5   ar
    11     6    10    1
    12    11    12   ar
    13    13    14   ar
    14    15    10   ar
    15     3     4   ar
    16     7     6   am
    17     1     3   ar
    18     2     4   ar
    19     6     8    2
    20    10    11   ar
    21    12    13   ar
    22    14    15   ar
    23     7     9    1
@<TRIPOS>MOLECULE
MolPort-001-939-484 100542660 MCULE-9037895478 PubChem-3112361 ZINC000100542660
 22 23 0 0 0
SMALL
GASTEIGER

@<TRIPOS>ATOM
      1 C           8.4150   40.2605    5.9818 C.ar    1  UNL1        0.1123
      2 C          10.4740   41.4352    5.6665 C.ar    1  UNL1        0.1880
      3 N           8.9118   40.1347    4.7319 N.ar    1  UNL1       -0.1440
      4 N          10.0598   40.7865    4.5557 N.ar    1  UNL1       -0.1256
      5 S           9.4057   41.2247    6.9485 S.2     1  UNL1       -0.0347
      6 C          12.8188   41.8774    6.5418 C.2     1  UNL1        0.2509
      7 N          11.6730   42.2115    5.7475 N.am    1  UNL1       -0.2592
      8 O          12.8248   40.8291    7.2434 O.2     1  UNL1       -0.2698
      9 H          11.7144   43.0396    5.2166 H       1  UNL1        0.1571
     10 C          13.9961   42.7635    6.5384 C.ar    1  UNL1        0.0537
     11 C          13.9893   43.9515    5.7918 C.ar    1  UNL1        0.0045
     12 C          15.1068   44.7915    5.7892 C.ar    1  UNL1        0.0001
     13 C          16.2394   44.4500    6.5332 C.ar    1  UNL1        0.0000
     14 C          16.2547   43.2688    7.2797 C.ar    1  UNL1        0.0001
     15 C          15.1373   42.4288    7.2822 C.ar    1  UNL1        0.0045
     16 C           7.1336   39.6421    6.4190 C.3     1  UNL1        0.0545
     17 C           6.1232   40.7224    6.7637 C.3     1  UNL1        0.0069
     18 C           5.9496   40.8291    8.2709 C.3     1  UNL1        0.0004
     19 C           6.0578   42.2717    8.7529 C.3     1  UNL1        0.0000
     20 C           6.1145   43.2446    7.5854 C.3     1  UNL1        0.0000
     21 C           4.1944   44.7971    7.7509 C.3     1  UNL1        0.0000
     22 C           5.6735   44.6280    8.0242 C.3     1  UNL1        0.0000
@<TRIPOS>BOND
     1    21    22    1
     2    22    20    1
     3    20    19    1
     4    19    18    1
     5    18    17    1
     6    17    16    1
     7    16     1    1
     8     1     5   ar
     9     2     7    1
    10     2     5   ar
    11     6    10    1
    12    11    12   ar
    13    13    14   ar
    14    15    10   ar
    15     3     4   ar
    16     7     6   am
    17     1     3   ar
    18     2     4   ar
    19     6     8    2
    20    10    11   ar
    21    12    13   ar
    22    14    15   ar
    23     7     9    1
@<TRIPOS>MOLECULE
MolPort-001-939-484 100542660 MCULE-9037895478 PubChem-3112361 ZINC000100542660
 22 23 0 0 0
SMALL
GASTEIGER

@<TRIPOS>ATOM
      1 C          11.7071   38.4006    9.5162 C.ar    1  UNL1        0.1123
      2 C          12.8738   40.3684    8.8195 C.ar    1  UNL1        0.1880
      3 N          11.6376   39.4055   10.4164 N.ar    1  UNL1       -0.1440
      4 N          12.2850   40.5028   10.0284 N.ar    1  UNL1       -0.1256
      5 S          12.6119   38.8422    8.1627 S.2     1  UNL1       -0.0347
      6 C          15.0611   41.5085    8.2065 C.2     1  UNL1        0.2509
      7 N          13.6323   41.3947    8.1729 N.am    1  UNL1       -0.2592
      8 O          15.7532   40.6658    8.8407 O.2     1  UNL1       -0.2698
      9 H          13.1345   42.0758    7.6655 H       1  UNL1        0.1571
     10 C          15.7247   42.6159    7.4963 C.ar    1  UNL1        0.0537
     11 C          15.0927   43.2458    6.4135 C.ar    1  UNL1        0.0045
     12 C          15.7232   44.2964    5.7404 C.ar    1  UNL1        0.0001
     13 C          16.9903   44.7250    6.1448 C.ar    1  UNL1        0.0000
     14 C          17.6270   44.1033    7.2222 C.ar    1  UNL1        0.0001
     15 C          16.9966   43.0527    7.8954 C.ar    1  UNL1        0.0045
     16 C          11.0816   37.0668    9.7291 C.3     1  UNL1        0.0545
     17 C          11.8925   36.2638   10.7314 C.3     1  UNL1        0.0069
     18 C          12.7434   35.2242   10.0184 C.3     1  UNL1        0.0004
     19 C          14.1737   35.7096    9.8096 C.3     1  UNL1        0.0000
     20 C          14.9556   34.7641    8.9109 C.3     1  UNL1        0.0000
     21 C          15.7993   35.7856    6.8207 C.3     1  UNL1        0.0000
     22 C          16.1245   35.4863    8.2684 C.3     1  UNL1        0.0000
@<TRIPOS>BOND
     1    21    22    1
     2    22    20    1
     3    20    19    1
     4    19    18    1
     5    18    17    1
     6    17    16    1
     7    16     1    1
     8     1     5   ar
     9     2     7    1
    10     2     5   ar
    11     6    10    1
    12    11    12   ar
    13    13    14   ar
    14    15    10   ar
    15     3     4   ar
    16     7     6   am
    17     1     3   ar
    18     2     4   ar
    19     6     8    2
    20    10    11   ar
    21    12    13   ar
    22    14    15   ar
    23     7     9    1
