@<TRIPOS>MOLECULE
Molport-052-054-263
 27 29 0 0 0
SMALL
GASTEIGER

@<TRIPOS>ATOM
      1 C          11.6842   40.4515    8.6774 C.ar    1  UNL1        0.1545
      2 C           9.7049   40.7595    7.4127 C.ar    1  UNL1        0.0635
      3 C           8.2275   40.5732    7.2720 C.3     1  UNL1        0.0522
      4 C          10.4259   41.4606    6.4413 C.ar    1  UNL1        0.0492
      5 C          11.8070   41.6285    6.6182 C.ar    1  UNL1        0.1361
      6 N          10.3466   40.2762    8.5084 N.ar    1  UNL1       -0.2335
      7 N          12.3951   41.1389    7.7416 N.ar    1  UNL1       -0.2145
      8 C          11.5195   40.3094   11.2069 C.3     1  UNL1        0.0256
      9 C          12.3379   39.9588    9.9450 C.3     1  UNL1        0.1171
     10 C          13.2605   38.1815    8.5184 C.3     1  UNL1        0.0902
     11 N          12.6436   38.5104    9.8162 N.3     1  UNL1       -0.2614
     12 C          13.4225   37.9509   10.9431 C.3     1  UNL1        0.1190
     13 C          14.8871   38.1700   10.7074 C.ar    1  UNL1        0.0753
     14 C          15.4020   39.4706   10.5976 C.ar    1  UNL1        0.0184
     15 C          16.7730   39.6498   10.4035 C.ar    1  UNL1        0.0325
     16 C          17.6134   38.5380   10.3217 C.ar    1  UNL1        0.1592
     17 C          17.0666   37.2572   10.4377 C.ar    1  UNL1        0.1280
     18 N          15.7289   37.1024   10.6289 N.ar    1  UNL1       -0.2444
     19 F          18.9468   38.6997   10.1347 F       1  UNL1       -0.2025
     20 N          12.6046   42.3681    5.6811 N.pl3   1  UNL1       -0.2781
     21 H          12.3449   42.3373    4.7319 H       1  UNL1        0.1555
     22 C          13.7539   43.1484    6.0352 C.ar    1  UNL1        0.1643
     23 C          15.1826   44.8789    6.0234 C.ar    1  UNL1        0.1030
     24 C          15.8944   44.0024    6.8354 C.ar    1  UNL1        0.0293
     25 C          17.1838   44.3038    7.5227 C.3     1  UNL1        0.0399
     26 N          13.9976   44.3939    5.5670 N.ar    1  UNL1       -0.2228
     27 S          15.0034   42.5854    7.0118 S.2     1  UNL1       -0.0557
@<TRIPOS>BOND
     1     9     8    1
     2     9    11    1
     3     9     1    1
     4    10    11    1
     5    12    11    1
     6    12    13    1
     7    13    18   ar
     8    14    15   ar
     9    16    19    1
    10    16    17   ar
    11     1     7   ar
    12     2     6   ar
    13     3     2    1
    14     4     5   ar
    15     5    20    1
    16    22    27   ar
    17    23    26   ar
    18    24    27   ar
    19    25    24    1
    20    20    22    1
    21    13    14   ar
    22    15    16   ar
    23    17    18   ar
    24     1     6   ar
    25     2     4   ar
    26     5     7   ar
    27    22    26   ar
    28    23    24   ar
    29    20    21    1
@<TRIPOS>MOLECULE
Molport-052-054-263
 27 29 0 0 0
SMALL
GASTEIGER

@<TRIPOS>ATOM
      1 C           9.1199   42.0766    7.7958 C.ar    1  UNL1        0.1545
      2 C          10.6446   40.8712    9.1503 C.ar    1  UNL1        0.0635
      3 C          10.9130   40.0757   10.3881 C.3     1  UNL1        0.0522
      4 C          11.6551   41.0732    8.2053 C.ar    1  UNL1        0.0492
      5 C          11.3588   41.8103    7.0495 C.ar    1  UNL1        0.1361
      6 N           9.4017   41.3713    8.9234 N.ar    1  UNL1       -0.2335
      7 N          10.0942   42.2732    6.8653 N.ar    1  UNL1       -0.2145
      8 C           7.5036   43.1035    6.1289 C.3     1  UNL1        0.0256
      9 C           7.7072   42.5495    7.5560 C.3     1  UNL1        0.1171
     10 C           6.9166   40.2718    7.0742 C.3     1  UNL1        0.0902
     11 N           6.7531   41.4695    7.9179 N.3     1  UNL1       -0.2614
     12 C           6.7458   41.1215    9.3562 C.3     1  UNL1        0.1190
     13 C           5.4028   41.4303    9.9473 C.ar    1  UNL1        0.0753
     14 C           5.0555   40.9409   11.2156 C.ar    1  UNL1        0.0184
     15 C           3.8089   41.2629   11.7558 C.ar    1  UNL1        0.0325
     16 C           2.9253   42.0655   11.0317 C.ar    1  UNL1        0.1592
     17 C           3.3052   42.5374    9.7724 C.ar    1  UNL1        0.1280
     18 N           4.5246   42.2151    9.2636 N.ar    1  UNL1       -0.2444
     19 F           1.7124   42.3860   11.5466 F       1  UNL1       -0.2025
     20 N          12.3357   42.0263    6.0198 N.pl3   1  UNL1       -0.2781
     21 H          12.2132   41.5550    5.1642 H       1  UNL1        0.1555
     22 C          13.4776   42.8826    6.1543 C.ar    1  UNL1        0.1643
     23 C          14.8163   44.6452    5.7843 C.ar    1  UNL1        0.1030
     24 C          15.6461   43.9006    6.6157 C.ar    1  UNL1        0.0293
     25 C          16.9829   44.3279    7.1217 C.3     1  UNL1        0.0399
     26 N          13.6150   44.0680    5.5171 N.ar    1  UNL1       -0.2228
     27 S          14.8438   42.4873    7.0537 S.2     1  UNL1       -0.0557
@<TRIPOS>BOND
     1     9     8    1
     2     9    11    1
     3     9     1    1
     4    10    11    1
     5    12    11    1
     6    12    13    1
     7    13    18   ar
     8    14    15   ar
     9    16    19    1
    10    16    17   ar
    11     1     7   ar
    12     2     6   ar
    13     3     2    1
    14     4     5   ar
    15     5    20    1
    16    22    27   ar
    17    23    26   ar
    18    24    27   ar
    19    25    24    1
    20    20    22    1
    21    13    14   ar
    22    15    16   ar
    23    17    18   ar
    24     1     6   ar
    25     2     4   ar
    26     5     7   ar
    27    22    26   ar
    28    23    24   ar
    29    20    21    1
@<TRIPOS>MOLECULE
Molport-052-054-263
 27 29 0 0 0
SMALL
GASTEIGER

@<TRIPOS>ATOM
      1 C          10.1381   40.4067    7.1157 C.ar    1  UNL1        0.1545
      2 C          11.7506   40.7432    8.8183 C.ar    1  UNL1        0.0635
      3 C          12.2882   40.3871   10.1678 C.3     1  UNL1        0.0522
      4 C          12.4080   41.6841    8.0198 C.ar    1  UNL1        0.0492
      5 C          11.8818   41.9780    6.7535 C.ar    1  UNL1        0.1361
      6 N          10.6365   40.1233    8.3484 N.ar    1  UNL1       -0.2335
      7 N          10.7741   41.3158    6.3267 N.ar    1  UNL1       -0.2145
      8 C           8.8709   38.2078    7.1844 C.3     1  UNL1        0.0256
      9 C           8.9406   39.6399    6.6107 C.3     1  UNL1        0.1171
     10 C           6.4987   39.7522    6.3463 C.3     1  UNL1        0.0902
     11 N           7.7071   40.4355    6.8422 N.3     1  UNL1       -0.2614
     12 C           7.5341   40.8967    8.2376 C.3     1  UNL1        0.1190
     13 C           6.4876   41.9692    8.2926 C.ar    1  UNL1        0.0753
     14 C           6.6535   43.1611    7.5712 C.ar    1  UNL1        0.0184
     15 C           5.6535   44.1345    7.6181 C.ar    1  UNL1        0.0325
     16 C           4.5040   43.9122    8.3785 C.ar    1  UNL1        0.1592
     17 C           4.3710   42.7124    9.0826 C.ar    1  UNL1        0.1280
     18 N           5.3547   41.7750    9.0229 N.ar    1  UNL1       -0.2444
     19 F           3.5255   44.8496    8.4305 F       1  UNL1       -0.2025
     20 N          12.5234   42.9056    5.8652 N.pl3   1  UNL1       -0.2781
     21 H          12.0525   43.1474    5.0351 H       1  UNL1        0.1555
     22 C          13.8040   43.5032    6.1062 C.ar    1  UNL1        0.1643
     23 C          15.4553   45.0171    5.9761 C.ar    1  UNL1        0.1030
     24 C          16.1187   44.0177    6.6798 C.ar    1  UNL1        0.0293
     25 C          17.5050   44.1082    7.2237 C.3     1  UNL1        0.0399
     26 N          14.1707   44.7209    5.6450 N.ar    1  UNL1       -0.2228
     27 S          15.0590   42.7323    6.9202 S.2     1  UNL1       -0.0557
@<TRIPOS>BOND
     1     9     8    1
     2     9    11    1
     3     9     1    1
     4    10    11    1
     5    12    11    1
     6    12    13    1
     7    13    18   ar
     8    14    15   ar
     9    16    19    1
    10    16    17   ar
    11     1     7   ar
    12     2     6   ar
    13     3     2    1
    14     4     5   ar
    15     5    20    1
    16    22    27   ar
    17    23    26   ar
    18    24    27   ar
    19    25    24    1
    20    20    22    1
    21    13    14   ar
    22    15    16   ar
    23    17    18   ar
    24     1     6   ar
    25     2     4   ar
    26     5     7   ar
    27    22    26   ar
    28    23    24   ar
    29    20    21    1
@<TRIPOS>MOLECULE
Molport-052-054-263
 27 29 0 0 0
SMALL
GASTEIGER

@<TRIPOS>ATOM
      1 C          11.0478   39.8294    7.6526 C.ar    1  UNL1        0.1545
      2 C          10.5553   39.5163    5.3566 C.ar    1  UNL1        0.0635
      3 C           9.9749   38.6670    4.2708 C.3     1  UNL1        0.0522
      4 C          11.0700   40.7834    5.0659 C.ar    1  UNL1        0.0492
      5 C          11.5897   41.5560    6.1145 C.ar    1  UNL1        0.1361
      6 N          10.5508   39.0703    6.6401 N.ar    1  UNL1       -0.2335
      7 N          11.5448   41.0678    7.3823 N.ar    1  UNL1       -0.2145
      8 C          11.6200   37.9372    9.2456 C.3     1  UNL1        0.0256
      9 C          10.9549   39.3199    9.0699 C.3     1  UNL1        0.1171
     10 C          12.9412   40.4604    9.9637 C.3     1  UNL1        0.0902
     11 N          11.4716   40.3530   10.0045 N.3     1  UNL1       -0.2614
     12 C          10.8279   41.6779    9.8624 C.3     1  UNL1        0.1190
     13 C           9.4210   41.6176   10.3778 C.ar    1  UNL1        0.0753
     14 C           9.1726   41.3809   11.7383 C.ar    1  UNL1        0.0184
     15 C           7.8548   41.3544   12.1990 C.ar    1  UNL1        0.0325
     16 C           6.8029   41.5635   11.3051 C.ar    1  UNL1        0.1592
     17 C           7.0873   41.7988    9.9572 C.ar    1  UNL1        0.1280
     18 N           8.3774   41.8232    9.5274 N.ar    1  UNL1       -0.2444
     19 F           5.5191   41.5415   11.7412 F       1  UNL1       -0.2025
     20 N          12.1010   42.8798    5.8965 N.pl3   1  UNL1       -0.2781
     21 H          11.4838   43.5571    5.5363 H       1  UNL1        0.1555
     22 C          13.4501   43.2813    6.1683 C.ar    1  UNL1        0.1643
     23 C          15.3203   44.5163    6.0546 C.ar    1  UNL1        0.1030
     24 C          15.7959   43.4537    6.8155 C.ar    1  UNL1        0.0293
     25 C          17.1602   43.3497    7.4103 C.3     1  UNL1        0.0399
     26 N          14.0172   44.4095    5.6830 N.ar    1  UNL1       -0.2228
     27 S          14.5415   42.3574    7.0553 S.2     1  UNL1       -0.0557
@<TRIPOS>BOND
     1     9     8    1
     2     9    11    1
     3     9     1    1
     4    10    11    1
     5    12    11    1
     6    12    13    1
     7    13    18   ar
     8    14    15   ar
     9    16    19    1
    10    16    17   ar
    11     1     7   ar
    12     2     6   ar
    13     3     2    1
    14     4     5   ar
    15     5    20    1
    16    22    27   ar
    17    23    26   ar
    18    24    27   ar
    19    25    24    1
    20    20    22    1
    21    13    14   ar
    22    15    16   ar
    23    17    18   ar
    24     1     6   ar
    25     2     4   ar
    26     5     7   ar
    27    22    26   ar
    28    23    24   ar
    29    20    21    1
@<TRIPOS>MOLECULE
Molport-052-054-263
 27 29 0 0 0
SMALL
GASTEIGER

@<TRIPOS>ATOM
      1 C          10.7017   40.7292    8.2391 C.ar    1  UNL1        0.1545
      2 C          10.2675   39.8565    6.0800 C.ar    1  UNL1        0.0635
      3 C           9.5734   38.8528    5.2151 C.3     1  UNL1        0.0522
      4 C          11.0544   40.8606    5.5078 C.ar    1  UNL1        0.0492
      5 C          11.6748   41.7931    6.3518 C.ar    1  UNL1        0.1361
      6 N          10.1046   39.8157    7.4283 N.ar    1  UNL1       -0.2335
      7 N          11.4643   41.7158    7.6924 N.ar    1  UNL1       -0.2145
      8 C          11.7303   40.6181   10.5575 C.3     1  UNL1        0.0256
      9 C          10.4325   40.6850    9.7232 C.3     1  UNL1        0.1171
     10 C          10.2898   42.9899   10.5671 C.3     1  UNL1        0.0902
     11 N           9.5387   41.8106   10.1002 N.3     1  UNL1       -0.2614
     12 C           8.5493   42.1751    9.0620 C.3     1  UNL1        0.1190
     13 C           7.1765   41.7599    9.4997 C.ar    1  UNL1        0.0753
     14 C           6.1790   41.4917    8.5500 C.ar    1  UNL1        0.0184
     15 C           4.9157   41.0822    8.9812 C.ar    1  UNL1        0.0325
     16 C           4.6598   40.9439   10.3467 C.ar    1  UNL1        0.1592
     17 C           5.6775   41.2172   11.2645 C.ar    1  UNL1        0.1280
     18 N           6.9025   41.6128   10.8255 N.ar    1  UNL1       -0.2444
     19 F           3.4372   40.5454   10.7773 F       1  UNL1       -0.2025
     20 N          12.4669   42.8723    5.8330 N.pl3   1  UNL1       -0.2781
     21 H          12.0852   43.4134    5.1045 H       1  UNL1        0.1555
     22 C          13.7766   43.2147    6.3051 C.ar    1  UNL1        0.1643
     23 C          15.6703   44.3988    6.5224 C.ar    1  UNL1        0.1030
     24 C          16.0202   43.2737    7.2613 C.ar    1  UNL1        0.0293
     25 C          17.2921   43.0897    8.0189 C.3     1  UNL1        0.0399
     26 N          14.4254   44.3559    5.9784 N.ar    1  UNL1       -0.2228
     27 S          14.7231   42.2011    7.2583 S.2     1  UNL1       -0.0557
@<TRIPOS>BOND
     1     9     8    1
     2     9    11    1
     3     9     1    1
     4    10    11    1
     5    12    11    1
     6    12    13    1
     7    13    18   ar
     8    14    15   ar
     9    16    19    1
    10    16    17   ar
    11     1     7   ar
    12     2     6   ar
    13     3     2    1
    14     4     5   ar
    15     5    20    1
    16    22    27   ar
    17    23    26   ar
    18    24    27   ar
    19    25    24    1
    20    20    22    1
    21    13    14   ar
    22    15    16   ar
    23    17    18   ar
    24     1     6   ar
    25     2     4   ar
    26     5     7   ar
    27    22    26   ar
    28    23    24   ar
    29    20    21    1
@<TRIPOS>MOLECULE
Molport-052-054-263
 27 29 0 0 0
SMALL
GASTEIGER

@<TRIPOS>ATOM
      1 C          10.4111   41.4707    9.9860 C.ar    1  UNL1        0.1545
      2 C          12.5468   40.4968   10.3061 C.ar    1  UNL1        0.0635
      3 C          13.4733   39.6793   11.1489 C.3     1  UNL1        0.0522
      4 C          12.9578   40.9696    9.0561 C.ar    1  UNL1        0.0492
      5 C          12.0537   41.7181    8.2886 C.ar    1  UNL1        0.1361
      6 N          11.2849   40.7525   10.7403 N.ar    1  UNL1       -0.2335
      7 N          10.7981   41.9299    8.7641 N.ar    1  UNL1       -0.2145
      8 C           8.8432   41.3209   11.9772 C.3     1  UNL1        0.0256
      9 C           8.9989   41.6668   10.4801 C.3     1  UNL1        0.1171
     10 C           9.6132   44.0360   10.2458 C.3     1  UNL1        0.0902
     11 N           8.5363   43.0356   10.1333 N.3     1  UNL1       -0.2614
     12 C           7.8430   43.1309    8.8295 C.3     1  UNL1        0.1190
     13 C           6.4022   42.7479    8.9905 C.ar    1  UNL1        0.0753
     14 C           5.3948   43.7206    8.9038 C.ar    1  UNL1        0.0184
     15 C           4.0587   43.3356    9.0319 C.ar    1  UNL1        0.0325
     16 C           3.7408   41.9927    9.2433 C.ar    1  UNL1        0.1592
     17 C           4.7698   41.0504    9.3220 C.ar    1  UNL1        0.1280
     18 N           6.0652   41.4439    9.1925 N.ar    1  UNL1       -0.2444
     19 F           2.4468   41.6067    9.3678 F       1  UNL1       -0.2025
     20 N          12.3938   42.2043    6.9812 N.pl3   1  UNL1       -0.2781
     21 H          11.7816   41.9944    6.2394 H       1  UNL1        0.1555
     22 C          13.5655   42.9751    6.6839 C.ar    1  UNL1        0.1643
     23 C          14.8196   44.5867    5.7535 C.ar    1  UNL1        0.1030
     24 C          15.8213   43.8525    6.3793 C.ar    1  UNL1        0.0293
     25 C          17.2682   44.2136    6.4233 C.3     1  UNL1        0.0399
     26 N          13.5658   44.0864    5.9126 N.ar    1  UNL1       -0.2228
     27 S          15.1165   42.5508    7.1802 S.2     1  UNL1       -0.0557
@<TRIPOS>BOND
     1     9     8    1
     2     9    11    1
     3     9     1    1
     4    10    11    1
     5    12    11    1
     6    12    13    1
     7    13    18   ar
     8    14    15   ar
     9    16    19    1
    10    16    17   ar
    11     1     7   ar
    12     2     6   ar
    13     3     2    1
    14     4     5   ar
    15     5    20    1
    16    22    27   ar
    17    23    26   ar
    18    24    27   ar
    19    25    24    1
    20    20    22    1
    21    13    14   ar
    22    15    16   ar
    23    17    18   ar
    24     1     6   ar
    25     2     4   ar
    26     5     7   ar
    27    22    26   ar
    28    23    24   ar
    29    20    21    1
@<TRIPOS>MOLECULE
Molport-052-054-263
 27 29 0 0 0
SMALL
GASTEIGER

@<TRIPOS>ATOM
      1 C          10.9617   41.6136    8.1946 C.ar    1  UNL1        0.1545
      2 C          10.1222   41.1178    6.0355 C.ar    1  UNL1        0.0635
      3 C          10.3407   40.5416    4.6726 C.3     1  UNL1        0.0522
      4 C           8.8695   41.6213    6.3990 C.ar    1  UNL1        0.0492
      5 C           8.7004   42.1374    7.6919 C.ar    1  UNL1        0.1361
      6 N          11.1363   41.1203    6.9398 N.ar    1  UNL1       -0.2335
      7 N           9.7441   42.0997    8.5618 N.ar    1  UNL1       -0.2145
      8 C          11.6917   40.8070   10.4885 C.3     1  UNL1        0.0256
      9 C          12.0972   41.5286    9.1847 C.3     1  UNL1        0.1171
     10 C          13.1648   39.4825    8.3368 C.3     1  UNL1        0.0902
     11 N          13.2903   40.9393    8.5235 N.3     1  UNL1       -0.2614
     12 C          13.6843   41.6141    7.2669 C.3     1  UNL1        0.1190
     13 C          14.9768   42.3475    7.4671 C.ar    1  UNL1        0.0753
     14 C          15.9834   41.8039    8.2794 C.ar    1  UNL1        0.0184
     15 C          17.1882   42.4934    8.4304 C.ar    1  UNL1        0.0325
     16 C          17.3778   43.7108    7.7738 C.ar    1  UNL1        0.1592
     17 C          16.3545   44.2215    6.9707 C.ar    1  UNL1        0.1280
     18 N          15.1887   43.5344    6.8338 N.ar    1  UNL1       -0.2444
     19 F          18.5441   44.3888    7.9117 F       1  UNL1       -0.2025
     20 N           7.4335   42.6371    8.1465 N.pl3   1  UNL1       -0.2781
     21 H           7.0527   43.4161    7.6801 H       1  UNL1        0.1555
     22 C           6.6859   42.0776    9.2343 C.ar    1  UNL1        0.1643
     23 C           6.2505   41.3744   11.3203 C.ar    1  UNL1        0.1030
     24 C           5.0923   40.9366   10.6869 C.ar    1  UNL1        0.0293
     25 C           3.9254   40.2897   11.3545 C.3     1  UNL1        0.0399
     26 N           7.1428   41.9962   10.5049 N.ar    1  UNL1       -0.2228
     27 S           5.1722   41.3631    9.0607 S.2     1  UNL1       -0.0557
@<TRIPOS>BOND
     1     9     8    1
     2     9    11    1
     3     9     1    1
     4    10    11    1
     5    12    11    1
     6    12    13    1
     7    13    18   ar
     8    14    15   ar
     9    16    19    1
    10    16    17   ar
    11     1     7   ar
    12     2     6   ar
    13     3     2    1
    14     4     5   ar
    15     5    20    1
    16    22    27   ar
    17    23    26   ar
    18    24    27   ar
    19    25    24    1
    20    20    22    1
    21    13    14   ar
    22    15    16   ar
    23    17    18   ar
    24     1     6   ar
    25     2     4   ar
    26     5     7   ar
    27    22    26   ar
    28    23    24   ar
    29    20    21    1
@<TRIPOS>MOLECULE
Molport-052-054-263
 27 29 0 0 0
SMALL
GASTEIGER

@<TRIPOS>ATOM
      1 C          11.6968   40.7333   10.0711 C.ar    1  UNL1        0.1545
      2 C           9.6229   41.1386   11.1419 C.ar    1  UNL1        0.0635
      3 C           8.8266   41.2429   12.4038 C.3     1  UNL1        0.0522
      4 C           9.0297   41.4121    9.9057 C.ar    1  UNL1        0.0492
      5 C           9.8144   41.3198    8.7470 C.ar    1  UNL1        0.1361
      6 N          10.9403   40.8112   11.1981 N.ar    1  UNL1       -0.2335
      7 N          11.1315   41.0045    8.8626 N.ar    1  UNL1       -0.2145
      8 C          13.4865   39.4744   11.3586 C.3     1  UNL1        0.0256
      9 C          13.1712   40.4361   10.1921 C.3     1  UNL1        0.1171
     10 C          13.1110   38.6850    8.4673 C.3     1  UNL1        0.0902
     11 N          13.6946   39.9741    8.8805 N.3     1  UNL1       -0.2614
     12 C          13.6022   40.9812    7.8002 C.3     1  UNL1        0.1190
     13 C          14.8331   41.8376    7.7968 C.ar    1  UNL1        0.0753
     14 C          15.9349   41.5007    8.5974 C.ar    1  UNL1        0.0184
     15 C          17.0794   42.2996    8.5581 C.ar    1  UNL1        0.0325
     16 C          17.1153   43.4199    7.7258 C.ar    1  UNL1        0.1592
     17 C          16.0004   43.7243    6.9401 C.ar    1  UNL1        0.1280
     18 N          14.8954   42.9329    6.9899 N.ar    1  UNL1       -0.2444
     19 F          18.2218   44.2024    7.6781 F       1  UNL1       -0.2025
     20 N           9.2826   41.6216    7.4480 N.pl3   1  UNL1       -0.2781
     21 H           8.6563   42.3775    7.3723 H       1  UNL1        0.1555
     22 C           9.6027   40.8959    6.2538 C.ar    1  UNL1        0.1643
     23 C          10.7200   40.3403    4.3887 C.ar    1  UNL1        0.1030
     24 C           9.6357   39.4776    4.2692 C.ar    1  UNL1        0.0293
     25 C           9.4526   38.4508    3.2024 C.3     1  UNL1        0.0399
     26 N          10.6906   41.1396    5.4877 N.ar    1  UNL1       -0.2228
     27 S           8.6199   39.7007    5.5925 S.2     1  UNL1       -0.0557
@<TRIPOS>BOND
     1     9     8    1
     2     9    11    1
     3     9     1    1
     4    10    11    1
     5    12    11    1
     6    12    13    1
     7    13    18   ar
     8    14    15   ar
     9    16    19    1
    10    16    17   ar
    11     1     7   ar
    12     2     6   ar
    13     3     2    1
    14     4     5   ar
    15     5    20    1
    16    22    27   ar
    17    23    26   ar
    18    24    27   ar
    19    25    24    1
    20    20    22    1
    21    13    14   ar
    22    15    16   ar
    23    17    18   ar
    24     1     6   ar
    25     2     4   ar
    26     5     7   ar
    27    22    26   ar
    28    23    24   ar
    29    20    21    1
@<TRIPOS>MOLECULE
Molport-052-054-263
 27 29 0 0 0
SMALL
GASTEIGER

@<TRIPOS>ATOM
      1 C           9.9495   40.8594    7.9462 C.ar    1  UNL1        0.1545
      2 C          11.6053   39.2550    8.4905 C.ar    1  UNL1        0.0635
      3 C          11.9696   37.9438    9.1112 C.3     1  UNL1        0.0522
      4 C          12.5756   40.0260    7.8433 C.ar    1  UNL1        0.0492
      5 C          12.1906   41.2414    7.2590 C.ar    1  UNL1        0.1361
      6 N          10.3166   39.6845    8.5234 N.ar    1  UNL1       -0.2335
      7 N          10.8845   41.6149    7.3069 N.ar    1  UNL1       -0.2145
      8 C           7.5901   40.1965    7.2834 C.3     1  UNL1        0.0256
      9 C           8.4942   41.2581    7.9472 C.3     1  UNL1        0.1171
     10 C           8.4958   42.9795    9.7027 C.3     1  UNL1        0.0902
     11 N           8.0778   41.6166    9.3278 N.3     1  UNL1       -0.2614
     12 C           6.6415   41.3949    9.6065 C.3     1  UNL1        0.1190
     13 C           5.8271   42.4846    8.9760 C.ar    1  UNL1        0.0753
     14 C           4.5302   42.7588    9.4361 C.ar    1  UNL1        0.0184
     15 C           3.8008   43.7952    8.8501 C.ar    1  UNL1        0.0325
     16 C           4.3673   44.5447    7.8174 C.ar    1  UNL1        0.1592
     17 C           5.6624   44.2455    7.3859 C.ar    1  UNL1        0.1280
     18 N           6.3584   43.2337    7.9705 N.ar    1  UNL1       -0.2444
     19 F           3.6691   45.5545    7.2415 F       1  UNL1       -0.2025
     20 N          13.1247   42.0670    6.5468 N.pl3   1  UNL1       -0.2781
     21 H          12.8310   42.4630    5.6947 H       1  UNL1        0.1555
     22 C          14.4564   42.3533    6.9938 C.ar    1  UNL1        0.1643
     23 C          16.3230   42.1816    8.2275 C.ar    1  UNL1        0.1030
     24 C          16.6524   43.3020    7.4723 C.ar    1  UNL1        0.0293
     25 C          17.9590   44.0214    7.5047 C.3     1  UNL1        0.0399
     26 N          15.0927   41.6648    7.9691 N.ar    1  UNL1       -0.2228
     27 S          15.3771   43.6434    6.4283 S.2     1  UNL1       -0.0557
@<TRIPOS>BOND
     1     9     8    1
     2     9    11    1
     3     9     1    1
     4    10    11    1
     5    12    11    1
     6    12    13    1
     7    13    18   ar
     8    14    15   ar
     9    16    19    1
    10    16    17   ar
    11     1     7   ar
    12     2     6   ar
    13     3     2    1
    14     4     5   ar
    15     5    20    1
    16    22    27   ar
    17    23    26   ar
    18    24    27   ar
    19    25    24    1
    20    20    22    1
    21    13    14   ar
    22    15    16   ar
    23    17    18   ar
    24     1     6   ar
    25     2     4   ar
    26     5     7   ar
    27    22    26   ar
    28    23    24   ar
    29    20    21    1
@<TRIPOS>MOLECULE
Molport-052-054-263
 27 29 0 0 0
SMALL
GASTEIGER

@<TRIPOS>ATOM
      1 C          10.9210   41.4020   10.0010 C.ar    1  UNL1        0.1545
      2 C           9.3809   41.4010   11.8010 C.ar    1  UNL1        0.0635
      3 C           9.0884   41.1274   13.2421 C.3     1  UNL1        0.0522
      4 C           8.4016   41.9581   10.9730 C.ar    1  UNL1        0.0492
      5 C           8.7205   42.2155    9.6318 C.ar    1  UNL1        0.1361
      6 N          10.6168   41.1406   11.3000 N.ar    1  UNL1       -0.2335
      7 N           9.9775   41.9512    9.1874 N.ar    1  UNL1       -0.2145
      8 C          13.1365   40.2497   10.4587 C.3     1  UNL1        0.0256
      9 C          12.3278   41.1621    9.5107 C.3     1  UNL1        0.1171
     10 C          11.3314   39.5726    7.9214 C.3     1  UNL1        0.0902
     11 N          12.2892   40.6778    8.1065 N.3     1  UNL1       -0.2614
     12 C          12.0860   41.7443    7.1010 C.3     1  UNL1        0.1190
     13 C          13.3594   42.5128    6.9104 C.ar    1  UNL1        0.0753
     14 C          14.5645   42.0350    7.4472 C.ar    1  UNL1        0.0184
     15 C          15.7417   42.7552    7.2349 C.ar    1  UNL1        0.0325
     16 C          15.7075   43.9376    6.4934 C.ar    1  UNL1        0.1592
     17 C          14.4899   44.3827    5.9715 C.ar    1  UNL1        0.1280
     18 N          13.3539   43.6664    6.1868 N.ar    1  UNL1       -0.2444
     19 F          16.8445   44.6448    6.2794 F       1  UNL1       -0.2025
     20 N           7.7776   42.8198    8.7333 N.pl3   1  UNL1       -0.2781
     21 H           8.1325   43.3215    7.9642 H       1  UNL1        0.1555
     22 C           6.3538   42.7414    8.8815 C.ar    1  UNL1        0.1643
     23 C           4.2479   43.4529    9.1888 C.ar    1  UNL1        0.1030
     24 C           4.0311   42.0797    9.2260 C.ar    1  UNL1        0.0293
     25 C           2.7028   41.4099    9.3386 C.3     1  UNL1        0.0399
     26 N           5.5452   43.8180    9.0119 N.ar    1  UNL1       -0.2228
     27 S           5.5033   41.2946    9.0041 S.2     1  UNL1       -0.0557
@<TRIPOS>BOND
     1     9     8    1
     2     9    11    1
     3     9     1    1
     4    10    11    1
     5    12    11    1
     6    12    13    1
     7    13    18   ar
     8    14    15   ar
     9    16    19    1
    10    16    17   ar
    11     1     7   ar
    12     2     6   ar
    13     3     2    1
    14     4     5   ar
    15     5    20    1
    16    22    27   ar
    17    23    26   ar
    18    24    27   ar
    19    25    24    1
    20    20    22    1
    21    13    14   ar
    22    15    16   ar
    23    17    18   ar
    24     1     6   ar
    25     2     4   ar
    26     5     7   ar
    27    22    26   ar
    28    23    24   ar
    29    20    21    1
