@<TRIPOS>MOLECULE
MolPort-002-536-916 1950594 CSSS00160676641 LN00398489 PubChem-1674666 ZINC000001950594
 21 21 0 0 0
SMALL
GASTEIGER

@<TRIPOS>ATOM
      1 C          14.4413   40.1219    9.3003 C.ar    1  UNL1        0.1398
      2 C          13.9741   39.8909   10.6038 C.ar    1  UNL1        0.0370
      3 C          12.6804   39.4071   10.8113 C.ar    1  UNL1        0.0044
      4 C          11.8477   39.1516    9.7191 C.ar    1  UNL1        0.0149
      5 C          12.3029   39.3782    8.4117 C.ar    1  UNL1        0.0536
      6 C          13.6002   39.8629    8.2130 C.ar    1  UNL1        0.0516
      7 C          10.4046   39.9501    6.7818 C.2     1  UNL1        0.2499
      8 O          10.0926   41.0196    7.3686 O.2     1  UNL1       -0.2698
      9 N          11.4777   39.1277    7.2659 N.am    1  UNL1       -0.2803
     10 H          11.6668   38.3058    6.7579 H       1  UNL1        0.1552
     11 C           9.6508   39.5544    5.5890 C.2     1  UNL1        0.0647
     12 C          10.2000   38.8267    4.6212 C.2     1  UNL1        0.0863
     13 C           9.4468   38.4303    3.4277 C.2     1  UNL1        0.3384
     14 O           9.3294   37.0840    3.1112 O.3     1  UNL1       -0.4771
     15 O           8.9054   39.2939    2.6866 O.2     1  UNL1       -0.2451
     16 H           9.7298   36.4374    3.6586 H       1  UNL1        0.2954
     17 O          15.7302   40.6043    9.0583 O.3     1  UNL1       -0.4754
     18 C          15.9782   41.8277    8.3761 C.3     1  UNL1        0.2054
     19 C          17.4550   42.1830    8.4511 C.3     1  UNL1        0.0473
     20 C          16.5962   44.2233    7.2962 C.3     1  UNL1        0.0001
     21 C          17.7966   43.3187    7.5000 C.3     1  UNL1        0.0038
@<TRIPOS>BOND
     1    20    21    1
     2    21    19    1
     3    19    18    1
     4    18    17    1
     5     1    17    1
     6     2     3   ar
     7     4     5   ar
     8     5     9    1
     9     7    11    1
    10    12    13    1
    11    13    14    1
    12     6     1   ar
    13     9     7   am
    14     1     2   ar
    15     3     4   ar
    16     5     6   ar
    17     7     8    2
    18    11    12    2
    19    13    15    2
    20    14    16    1
    21     9    10    1
@<TRIPOS>MOLECULE
MolPort-002-536-916 1950594 CSSS00160676641 LN00398489 PubChem-1674666 ZINC000001950594
 21 21 0 0 0
SMALL
GASTEIGER

@<TRIPOS>ATOM
      1 C          15.7882   42.1784    7.9450 C.ar    1  UNL1        0.1398
      2 C          16.4114   43.3990    7.6408 C.ar    1  UNL1        0.0370
      3 C          15.8428   44.2639    6.7028 C.ar    1  UNL1        0.0044
      4 C          14.6502   43.9144    6.0648 C.ar    1  UNL1        0.0149
      5 C          14.0178   42.6976    6.3602 C.ar    1  UNL1        0.0536
      6 C          14.5942   41.8373    7.3009 C.ar    1  UNL1        0.0516
      7 C          11.9778   41.1697    6.0579 C.2     1  UNL1        0.2499
      8 O          12.3032   40.3889    6.9907 O.2     1  UNL1       -0.2698
      9 N          12.7930   42.3044    5.7262 N.am    1  UNL1       -0.2803
     10 H          12.4781   42.8720    4.9860 H       1  UNL1        0.1552
     11 C          10.7461   40.9010    5.3108 C.2     1  UNL1        0.0647
     12 C          10.3702   39.6643    4.9990 C.2     1  UNL1        0.0863
     13 C           9.1383   39.3945    4.2518 C.2     1  UNL1        0.3384
     14 O           7.9907   39.0247    4.9393 O.3     1  UNL1       -0.4771
     15 O           9.1073   39.4935    2.9958 O.2     1  UNL1       -0.2451
     16 H           8.0078   38.9495    5.8731 H       1  UNL1        0.2954
     17 O          16.3301   41.2915    8.8789 O.3     1  UNL1       -0.4754
     18 C          15.5865   40.2168    9.4408 C.3     1  UNL1        0.2054
     19 C          16.4084   39.5069   10.5053 C.3     1  UNL1        0.0473
     20 C          14.1587   39.1812   11.5381 C.3     1  UNL1        0.0001
     21 C          15.5404   38.5853   11.3469 C.3     1  UNL1        0.0038
@<TRIPOS>BOND
     1    20    21    1
     2    21    19    1
     3    19    18    1
     4    18    17    1
     5     1    17    1
     6     2     3   ar
     7     4     5   ar
     8     5     9    1
     9     7    11    1
    10    12    13    1
    11    13    14    1
    12     6     1   ar
    13     9     7   am
    14     1     2   ar
    15     3     4   ar
    16     5     6   ar
    17     7     8    2
    18    11    12    2
    19    13    15    2
    20    14    16    1
    21     9    10    1
@<TRIPOS>MOLECULE
MolPort-002-536-916 1950594 CSSS00160676641 LN00398489 PubChem-1674666 ZINC000001950594
 21 21 0 0 0
SMALL
GASTEIGER

@<TRIPOS>ATOM
      1 C          13.3888   41.6702    7.3674 C.ar    1  UNL1        0.1398
      2 C          13.7218   40.5760    8.1815 C.ar    1  UNL1        0.0370
      3 C          12.7475   39.9708    8.9786 C.ar    1  UNL1        0.0044
      4 C          11.4371   40.4547    8.9665 C.ar    1  UNL1        0.0149
      5 C          11.0917   41.5472    8.1572 C.ar    1  UNL1        0.0536
      6 C          12.0739   42.1475    7.3619 C.ar    1  UNL1        0.0516
      7 C           8.8827   42.1142    6.9800 C.2     1  UNL1        0.2499
      8 O           9.2502   41.6635    5.8631 O.2     1  UNL1       -0.2698
      9 N           9.7576   42.0718    8.1179 N.am    1  UNL1       -0.2803
     10 H           9.4047   42.4417    8.9592 H       1  UNL1        0.1552
     11 C           7.5391   42.6865    7.1019 C.2     1  UNL1        0.0647
     12 C           7.2093   43.4954    8.1044 C.2     1  UNL1        0.0863
     13 C           5.8657   44.0685    8.2272 C.2     1  UNL1        0.3384
     14 O           5.1861   43.9612    9.4326 O.3     1  UNL1       -0.4771
     15 O           5.3204   44.6561    7.2548 O.2     1  UNL1       -0.2451
     16 H           5.5865   43.5254   10.1590 H       1  UNL1        0.2954
     17 O          14.3392   42.2973    6.5575 O.3     1  UNL1       -0.4754
     18 C          15.0490   43.4610    6.9644 C.3     1  UNL1        0.2054
     19 C          16.3644   43.0733    7.6216 C.3     1  UNL1        0.0473
     20 C          17.6501   43.8341    5.6211 C.3     1  UNL1        0.0001
     21 C          17.5055   43.9474    7.1268 C.3     1  UNL1        0.0038
@<TRIPOS>BOND
     1    20    21    1
     2    21    19    1
     3    19    18    1
     4    18    17    1
     5     1    17    1
     6     2     3   ar
     7     4     5   ar
     8     5     9    1
     9     7    11    1
    10    12    13    1
    11    13    14    1
    12     6     1   ar
    13     9     7   am
    14     1     2   ar
    15     3     4   ar
    16     5     6   ar
    17     7     8    2
    18    11    12    2
    19    13    15    2
    20    14    16    1
    21     9    10    1
@<TRIPOS>MOLECULE
MolPort-002-536-916 1950594 CSSS00160676641 LN00398489 PubChem-1674666 ZINC000001950594
 21 21 0 0 0
SMALL
GASTEIGER

@<TRIPOS>ATOM
      1 C           6.8361   40.9933    7.7768 C.ar    1  UNL1        0.1398
      2 C           6.7238   40.2508    6.5908 C.ar    1  UNL1        0.0370
      3 C           7.7555   39.3956    6.1966 C.ar    1  UNL1        0.0044
      4 C           8.9032   39.2779    6.9842 C.ar    1  UNL1        0.0149
      5 C           9.0274   40.0144    8.1716 C.ar    1  UNL1        0.0536
      6 C           7.9892   40.8686    8.5590 C.ar    1  UNL1        0.0516
      7 C          11.1431   40.9597    9.2749 C.2     1  UNL1        0.2499
      8 O          11.0164   42.1030    8.7625 O.2     1  UNL1       -0.2698
      9 N          10.1897   39.9200    9.0062 N.am    1  UNL1       -0.2803
     10 H          10.3510   39.0513    9.4404 H       1  UNL1        0.1552
     11 C          12.2861   40.7046   10.1558 C.2     1  UNL1        0.0647
     12 C          13.1136   39.6837    9.9536 C.2     1  UNL1        0.0863
     13 C          14.2573   39.4276   10.8340 C.2     1  UNL1        0.3384
     14 O          15.5456   39.5747   10.3389 O.3     1  UNL1       -0.4771
     15 O          14.0868   39.0762   12.0322 O.2     1  UNL1       -0.2451
     16 H          15.6784   39.8357    9.4489 H       1  UNL1        0.2954
     17 O           5.8221   41.8566    8.2000 O.3     1  UNL1       -0.4754
     18 C           5.7081   42.3092    9.5437 C.3     1  UNL1        0.2054
     19 C           5.1073   41.2196   10.4179 C.3     1  UNL1        0.0473
     20 C           2.7289   41.9364   10.6699 C.3     1  UNL1        0.0001
     21 C           3.6666   40.9323   10.0269 C.3     1  UNL1        0.0038
@<TRIPOS>BOND
     1    20    21    1
     2    21    19    1
     3    19    18    1
     4    18    17    1
     5     1    17    1
     6     2     3   ar
     7     4     5   ar
     8     5     9    1
     9     7    11    1
    10    12    13    1
    11    13    14    1
    12     6     1   ar
    13     9     7   am
    14     1     2   ar
    15     3     4   ar
    16     5     6   ar
    17     7     8    2
    18    11    12    2
    19    13    15    2
    20    14    16    1
    21     9    10    1
@<TRIPOS>MOLECULE
MolPort-002-536-916 1950594 CSSS00160676641 LN00398489 PubChem-1674666 ZINC000001950594
 21 21 0 0 0
SMALL
GASTEIGER

@<TRIPOS>ATOM
      1 C          11.1783   41.3695    6.5028 C.ar    1  UNL1        0.1398
      2 C          11.3279   40.4729    5.4329 C.ar    1  UNL1        0.0370
      3 C          10.2042   39.8961    4.8368 C.ar    1  UNL1        0.0044
      4 C           8.9266   40.2116    5.3057 C.ar    1  UNL1        0.0149
      5 C           8.7638   41.1062    6.3739 C.ar    1  UNL1        0.0536
      6 C           9.8949   41.6793    6.9651 C.ar    1  UNL1        0.0516
      7 C           7.1664   42.4924    7.8277 C.2     1  UNL1        0.2499
      8 O           8.0773   43.2174    8.3076 O.2     1  UNL1       -0.2698
      9 N           7.4691   41.4545    6.8825 N.am    1  UNL1       -0.2803
     10 H           6.7079   40.9268    6.5488 H       1  UNL1        0.1552
     11 C           5.7830   42.7256    8.2512 C.2     1  UNL1        0.0647
     12 C           5.1923   43.9071    8.0991 C.2     1  UNL1        0.0863
     13 C           3.8085   44.1413    8.5223 C.2     1  UNL1        0.3384
     14 O           3.2051   45.3585    8.2380 O.3     1  UNL1       -0.4771
     15 O           3.1606   43.2541    9.1398 O.2     1  UNL1       -0.2451
     16 H           3.6819   46.0219    7.7792 H       1  UNL1        0.2954
     17 O          12.2815   41.9646    7.1202 O.3     1  UNL1       -0.4754
     18 C          13.2315   42.7484    6.4084 C.3     1  UNL1        0.2054
     19 C          14.6101   42.6017    7.0333 C.3     1  UNL1        0.0473
     20 C          14.9525   44.7079    5.7368 C.3     1  UNL1        0.0001
     21 C          15.6282   43.4884    6.3344 C.3     1  UNL1        0.0038
@<TRIPOS>BOND
     1    20    21    1
     2    21    19    1
     3    19    18    1
     4    18    17    1
     5     1    17    1
     6     2     3   ar
     7     4     5   ar
     8     5     9    1
     9     7    11    1
    10    12    13    1
    11    13    14    1
    12     6     1   ar
    13     9     7   am
    14     1     2   ar
    15     3     4   ar
    16     5     6   ar
    17     7     8    2
    18    11    12    2
    19    13    15    2
    20    14    16    1
    21     9    10    1
@<TRIPOS>MOLECULE
MolPort-002-536-916 1950594 CSSS00160676641 LN00398489 PubChem-1674666 ZINC000001950594
 21 21 0 0 0
SMALL
GASTEIGER

@<TRIPOS>ATOM
      1 C          14.7039   37.4790   10.0549 C.ar    1  UNL1        0.1398
      2 C          13.9673   37.7386   11.2214 C.ar    1  UNL1        0.0370
      3 C          13.5270   39.0344   11.5008 C.ar    1  UNL1        0.0044
      4 C          13.8195   40.0762   10.6173 C.ar    1  UNL1        0.0149
      5 C          14.5546   39.8296    9.4483 C.ar    1  UNL1        0.0536
      6 C          14.9918   38.5288    9.1762 C.ar    1  UNL1        0.0516
      7 C          13.9806   41.4937    7.5805 C.2     1  UNL1        0.2499
      8 O          12.7737   41.1422    7.5057 O.2     1  UNL1       -0.2698
      9 N          14.8742   40.8728    8.5176 N.am    1  UNL1       -0.2803
     10 H          15.8036   41.1974    8.5216 H       1  UNL1        0.1552
     11 C          14.4627   42.5535    6.6906 C.2     1  UNL1        0.0647
     12 C          15.4727   43.3491    7.0298 C.2     1  UNL1        0.0863
     13 C          15.9558   44.4094    6.1403 C.2     1  UNL1        0.3384
     14 O          15.1890   45.5524    5.9623 O.3     1  UNL1       -0.4771
     15 O          17.0561   44.2971    5.5361 O.2     1  UNL1       -0.2451
     16 H          14.3701   45.6415    6.4090 H       1  UNL1        0.2954
     17 O          15.1581   36.1943    9.7454 O.3     1  UNL1       -0.4754
     18 C          14.3052   35.1810    9.2266 C.3     1  UNL1        0.2054
     19 C          15.1307   34.0459    8.6413 C.3     1  UNL1        0.0473
     20 C          15.1984   31.6122    8.0874 C.3     1  UNL1        0.0001
     21 C          14.3499   32.7414    8.6403 C.3     1  UNL1        0.0038
@<TRIPOS>BOND
     1    20    21    1
     2    21    19    1
     3    19    18    1
     4    18    17    1
     5     1    17    1
     6     2     3   ar
     7     4     5   ar
     8     5     9    1
     9     7    11    1
    10    12    13    1
    11    13    14    1
    12     6     1   ar
    13     9     7   am
    14     1     2   ar
    15     3     4   ar
    16     5     6   ar
    17     7     8    2
    18    11    12    2
    19    13    15    2
    20    14    16    1
    21     9    10    1
@<TRIPOS>MOLECULE
MolPort-002-536-916 1950594 CSSS00160676641 LN00398489 PubChem-1674666 ZINC000001950594
 21 21 0 0 0
SMALL
GASTEIGER

@<TRIPOS>ATOM
      1 C           8.7837   41.0099    6.5570 C.ar    1  UNL1        0.1398
      2 C           8.0337   39.8691    6.2300 C.ar    1  UNL1        0.0370
      3 C           8.3889   38.6219    6.7488 C.ar    1  UNL1        0.0044
      4 C           9.4938   38.5079    7.5960 C.ar    1  UNL1        0.0149
      5 C          10.2513   39.6403    7.9304 C.ar    1  UNL1        0.0536
      6 C           9.8884   40.8857    7.4062 C.ar    1  UNL1        0.0516
      7 C          11.4532   39.9594   10.1755 C.2     1  UNL1        0.2499
      8 O          10.4433   40.4340   10.7589 O.2     1  UNL1       -0.2698
      9 N          11.3915   39.5629    8.7966 N.am    1  UNL1       -0.2803
     10 H          12.2186   39.2000    8.4050 H       1  UNL1        0.1552
     11 C          12.7013   39.8166   10.9302 C.2     1  UNL1        0.0647
     12 C          13.8037   39.3214   10.3758 C.2     1  UNL1        0.0863
     13 C          15.0527   39.1783   11.1298 C.2     1  UNL1        0.3384
     14 O          16.2433   39.6157   10.5665 O.3     1  UNL1       -0.4771
     15 O          15.0598   38.6642   12.2804 O.2     1  UNL1       -0.2451
     16 H          16.2441   39.9987    9.7113 H       1  UNL1        0.2954
     17 O           8.4545   42.2721    6.0559 O.3     1  UNL1       -0.4754
     18 C           7.1696   42.8573    6.2292 C.3     1  UNL1        0.2054
     19 C           7.0430   43.4475    7.6250 C.3     1  UNL1        0.0473
     20 C           4.7798   43.7246    8.6423 C.3     1  UNL1        0.0001
     21 C           5.8224   44.3472    7.7334 C.3     1  UNL1        0.0038
@<TRIPOS>BOND
     1    20    21    1
     2    21    19    1
     3    19    18    1
     4    18    17    1
     5     1    17    1
     6     2     3   ar
     7     4     5   ar
     8     5     9    1
     9     7    11    1
    10    12    13    1
    11    13    14    1
    12     6     1   ar
    13     9     7   am
    14     1     2   ar
    15     3     4   ar
    16     5     6   ar
    17     7     8    2
    18    11    12    2
    19    13    15    2
    20    14    16    1
    21     9    10    1
@<TRIPOS>MOLECULE
MolPort-002-536-916 1950594 CSSS00160676641 LN00398489 PubChem-1674666 ZINC000001950594
 21 21 0 0 0
SMALL
GASTEIGER

@<TRIPOS>ATOM
      1 C          11.1338   40.8177    8.8996 C.ar    1  UNL1        0.1398
      2 C          11.7751   40.7186   10.1445 C.ar    1  UNL1        0.0370
      3 C          11.0471   40.8833   11.3252 C.ar    1  UNL1        0.0044
      4 C           9.6765   41.1472   11.2685 C.ar    1  UNL1        0.0149
      5 C           9.0241   41.2484   10.0308 C.ar    1  UNL1        0.0536
      6 C           9.7609   41.0822    8.8531 C.ar    1  UNL1        0.0516
      7 C           6.6616   41.4965   11.0024 C.2     1  UNL1        0.2499
      8 O           7.0123   41.2213   12.1801 O.2     1  UNL1       -0.2698
      9 N           7.6191   41.5180    9.9324 N.am    1  UNL1       -0.2803
     10 H           7.2749   41.7413    9.0374 H       1  UNL1        0.1552
     11 C           5.2517   41.7967   10.7385 C.2     1  UNL1        0.0647
     12 C           4.7802   41.9197    9.5013 C.2     1  UNL1        0.0863
     13 C           3.3701   42.2198    9.2362 C.2     1  UNL1        0.3384
     14 O           3.0273   43.4393    8.6689 O.3     1  UNL1       -0.4771
     15 O           2.4665   41.3870    9.5161 O.2     1  UNL1       -0.2451
     16 H           3.6948   44.0623    8.4587 H       1  UNL1        0.2954
     17 O          11.8326   40.6571    7.7003 O.3     1  UNL1       -0.4754
     18 C          12.5821   41.7067    7.1002 C.3     1  UNL1        0.2054
     19 C          14.0365   41.6328    7.5381 C.3     1  UNL1        0.0473
     20 C          14.0433   43.5002    5.8808 C.3     1  UNL1        0.0001
     21 C          14.8519   42.7635    6.9315 C.3     1  UNL1        0.0038
@<TRIPOS>BOND
     1    20    21    1
     2    21    19    1
     3    19    18    1
     4    18    17    1
     5     1    17    1
     6     2     3   ar
     7     4     5   ar
     8     5     9    1
     9     7    11    1
    10    12    13    1
    11    13    14    1
    12     6     1   ar
    13     9     7   am
    14     1     2   ar
    15     3     4   ar
    16     5     6   ar
    17     7     8    2
    18    11    12    2
    19    13    15    2
    20    14    16    1
    21     9    10    1
@<TRIPOS>MOLECULE
MolPort-002-536-916 1950594 CSSS00160676641 LN00398489 PubChem-1674666 ZINC000001950594
 21 21 0 0 0
SMALL
GASTEIGER

@<TRIPOS>ATOM
      1 C          13.7003   38.0592   11.0747 C.ar    1  UNL1        0.1398
      2 C          13.5110   36.6686   11.0410 C.ar    1  UNL1        0.0370
      3 C          12.3349   36.1319   10.5122 C.ar    1  UNL1        0.0044
      4 C          11.3430   36.9805   10.0148 C.ar    1  UNL1        0.0149
      5 C          11.5202   38.3718   10.0427 C.ar    1  UNL1        0.0536
      6 C          12.7013   38.9008   10.5741 C.ar    1  UNL1        0.0516
      7 C          10.4280   39.7932    8.2058 C.2     1  UNL1        0.2499
      8 O          11.2656   39.4698    7.3229 O.2     1  UNL1       -0.2698
      9 N          10.5251   39.2746    9.5414 N.am    1  UNL1       -0.2803
     10 H           9.8362   39.5697   10.1799 H       1  UNL1        0.1552
     11 C           9.3452   40.7132    7.8473 C.2     1  UNL1        0.0647
     12 C           8.7165   41.4469    8.7607 C.2     1  UNL1        0.0863
     13 C           7.6333   42.3675    8.4031 C.2     1  UNL1        0.3384
     14 O           6.3341   41.8883    8.3089 O.3     1  UNL1       -0.4771
     15 O           7.8655   43.5860    8.1804 O.2     1  UNL1       -0.2451
     16 H           6.1555   40.9833    8.4734 H       1  UNL1        0.2954
     17 O          14.8654   38.6280   11.5958 O.3     1  UNL1       -0.4754
     18 C          15.8181   39.3073   10.7869 C.3     1  UNL1        0.2054
     19 C          16.7479   38.3083   10.1161 C.3     1  UNL1        0.0473
     20 C          18.6752   36.9735   10.9750 C.3     1  UNL1        0.0001
     21 C          18.1448   38.3701   10.7126 C.3     1  UNL1        0.0038
@<TRIPOS>BOND
     1    20    21    1
     2    21    19    1
     3    19    18    1
     4    18    17    1
     5     1    17    1
     6     2     3   ar
     7     4     5   ar
     8     5     9    1
     9     7    11    1
    10    12    13    1
    11    13    14    1
    12     6     1   ar
    13     9     7   am
    14     1     2   ar
    15     3     4   ar
    16     5     6   ar
    17     7     8    2
    18    11    12    2
    19    13    15    2
    20    14    16    1
    21     9    10    1
@<TRIPOS>MOLECULE
MolPort-002-536-916 1950594 CSSS00160676641 LN00398489 PubChem-1674666 ZINC000001950594
 21 21 0 0 0
SMALL
GASTEIGER

@<TRIPOS>ATOM
      1 C          14.2226   39.4843    9.8576 C.ar    1  UNL1        0.1398
      2 C          13.4373   39.9209   10.9362 C.ar    1  UNL1        0.0370
      3 C          12.0652   40.1226   10.7704 C.ar    1  UNL1        0.0044
      4 C          11.4711   39.8894    9.5277 C.ar    1  UNL1        0.0149
      5 C          12.2449   39.4529    8.4422 C.ar    1  UNL1        0.0536
      6 C          13.6186   39.2534    8.6171 C.ar    1  UNL1        0.0516
      7 C          11.5405   40.1401    6.0718 C.2     1  UNL1        0.2499
      8 O          11.9481   41.3257    6.1900 O.2     1  UNL1       -0.2698
      9 N          11.6711   39.2029    7.1519 N.am    1  UNL1       -0.2803
     10 H          11.3310   38.2933    6.9897 H       1  UNL1        0.1552
     11 C          10.9268   39.7284    4.8064 C.2     1  UNL1        0.0647
     12 C          10.0458   38.7344    4.7445 C.2     1  UNL1        0.0863
     13 C           9.4312   38.3218    3.4793 C.2     1  UNL1        0.3384
     14 O           8.8219   39.2744    2.6745 O.3     1  UNL1       -0.4771
     15 O           9.4485   37.1160    3.1132 O.2     1  UNL1       -0.2451
     16 H           8.8060   40.1724    2.9415 H       1  UNL1        0.2954
     17 O          15.5973   39.2719    9.9904 O.3     1  UNL1       -0.4754
     18 C          16.1680   37.9735   10.1000 C.3     1  UNL1        0.2054
     19 C          15.1242   36.9778   10.5812 C.3     1  UNL1        0.0473
     20 C          13.3571   35.3905    9.8117 C.3     1  UNL1        0.0001
     21 C          14.6607   36.0759    9.4486 C.3     1  UNL1        0.0038
@<TRIPOS>BOND
     1    20    21    1
     2    21    19    1
     3    19    18    1
     4    18    17    1
     5     1    17    1
     6     2     3   ar
     7     4     5   ar
     8     5     9    1
     9     7    11    1
    10    12    13    1
    11    13    14    1
    12     6     1   ar
    13     9     7   am
    14     1     2   ar
    15     3     4   ar
    16     5     6   ar
    17     7     8    2
    18    11    12    2
    19    13    15    2
    20    14    16    1
    21     9    10    1
