@<TRIPOS>MOLECULE
MolPort-005-107-313 CSSS00160421858 MCULE-3921337657 PubChem-45224063
 29 31 0 0 0
SMALL
GASTEIGER

@<TRIPOS>ATOM
      1 C          10.7995   42.3507    8.5630 C.2     1  UNL1        0.3059
      2 N          12.1361   42.0437    8.9580 N.am    1  UNL1       -0.2899
      3 N          10.0825   43.3693    9.2667 N.am    1  UNL1       -0.2471
      4 O          10.2637   41.7294    7.6051 O.2     1  UNL1       -0.2524
      5 H          12.5364   42.5384    9.7091 H       1  UNL1        0.1509
      6 H          10.5470   43.8237   10.0062 H       1  UNL1        0.1584
      7 C           8.7422   43.7781    8.9780 C.ar    1  UNL1        0.1889
      8 C           6.4712   44.0426    8.2817 C.ar    1  UNL1        0.1143
      9 N           8.2107   44.9641    9.3491 N.ar    1  UNL1       -0.1256
     10 N           6.9467   45.1123    8.9565 N.ar    1  UNL1       -0.1440
     11 S           7.6398   42.8388    8.1227 S.2     1  UNL1       -0.0346
     12 C           5.1047   43.9819    7.6896 C.3     1  UNL1        0.0808
     13 C           4.0567   43.7554    8.7723 C.3     1  UNL1        0.1340
     14 C           5.5444   41.4254   10.9952 C.ar    1  UNL1        0.0801
     15 C           6.6339   41.0027   11.9136 C.3     1  UNL1        0.0540
     16 C           4.4169   40.6734   10.7009 C.ar    1  UNL1        0.0308
     17 C           3.7370   41.4940    9.8206 C.ar    1  UNL1        0.0571
     18 C           2.4378   41.1608    9.1714 C.3     1  UNL1        0.0517
     19 N           4.4265   42.6351    9.6291 N.ar    1  UNL1       -0.2548
     20 N           5.5378   42.6014   10.3399 N.ar    1  UNL1       -0.1740
     21 C          13.8319   40.3208    9.2828 C.3     1  UNL1        0.0217
     22 C          12.9263   41.0227    8.2862 C.3     1  UNL1        0.0790
     23 C          13.7220   41.6174    7.1216 C.3     1  UNL1        0.0654
     24 C          15.0183   42.2453    7.5343 C.ar    1  UNL1        0.0607
     25 C          17.1036   42.0457    8.6568 C.ar    1  UNL1        0.0984
     26 C          17.4554   43.3443    8.2826 C.ar    1  UNL1        0.0207
     27 C          16.5659   44.0959    7.5132 C.ar    1  UNL1        0.0028
     28 C          15.3410   43.5463    7.1316 C.ar    1  UNL1        0.0148
     29 N          15.9052   41.5268    8.2756 N.ar    1  UNL1       -0.2481
@<TRIPOS>BOND
     1    22    21    1
     2    22    23    1
     3    22     2    1
     4    23    24    1
     5    25    29   ar
     6    26    27   ar
     7    28    24   ar
     8     1     3   am
     9     7    11   ar
    10     8    11   ar
    11    12     8    1
    12    12    13    1
    13    13    19    1
    14    14    16   ar
    15    15    14    1
    16    17    19   ar
    17    18    17    1
    18     2     1   am
    19     3     7    1
    20     9    10   ar
    21    19    20   ar
    22    24    29   ar
    23    25    26   ar
    24    27    28   ar
    25     1     4    2
    26     7     9   ar
    27     8    10   ar
    28    14    20   ar
    29    16    17   ar
    30     2     5    1
    31     3     6    1
@<TRIPOS>MOLECULE
MolPort-005-107-313 CSSS00160421858 MCULE-3921337657 PubChem-45224063
 29 31 0 0 0
SMALL
GASTEIGER

@<TRIPOS>ATOM
      1 C           7.6062   42.7138    9.2413 C.2     1  UNL1        0.3059
      2 N           6.5042   43.6202    9.2189 N.am    1  UNL1       -0.2899
      3 N           8.6311   42.8886   10.2241 N.am    1  UNL1       -0.2471
      4 O           7.6695   41.7729    8.4038 O.2     1  UNL1       -0.2524
      5 H           6.4734   44.3493    9.8797 H       1  UNL1        0.1509
      6 H           8.5333   43.6387   10.8543 H       1  UNL1        0.1584
      7 C           9.7872   42.0571   10.3613 C.ar    1  UNL1        0.1889
      8 C          11.8994   40.9437   10.2539 C.ar    1  UNL1        0.1143
      9 N           9.8802   41.0170   11.2193 N.ar    1  UNL1       -0.1256
     10 N          11.0559   40.3945   11.1552 N.ar    1  UNL1       -0.1440
     11 S          11.1945   42.2532    9.4611 S.2     1  UNL1       -0.0346
     12 C          13.2540   40.3993    9.9536 C.3     1  UNL1        0.0808
     13 C          13.4913   40.3410    8.4496 C.3     1  UNL1        0.1340
     14 C          16.3726   42.3541    7.9708 C.ar    1  UNL1        0.0801
     15 C          17.7737   42.7332    8.2906 C.3     1  UNL1        0.0540
     16 C          15.5784   42.9767    7.0196 C.ar    1  UNL1        0.0308
     17 C          14.3970   42.2649    7.1106 C.ar    1  UNL1        0.0571
     18 C          13.1747   42.5306    6.3008 C.3     1  UNL1        0.0517
     19 N          14.5107   41.3019    8.0454 N.ar    1  UNL1       -0.2548
     20 N          15.7151   41.3509    8.5823 N.ar    1  UNL1       -0.1740
     21 C           5.5742   44.5544    7.1665 C.3     1  UNL1        0.0217
     22 C           5.4243   43.5015    8.2505 C.3     1  UNL1        0.0790
     23 C           4.0573   43.5856    8.9343 C.3     1  UNL1        0.0654
     24 C           3.8221   42.5079    9.9483 C.ar    1  UNL1        0.0607
     25 C           2.9032   41.8556   12.0408 C.ar    1  UNL1        0.0984
     26 C           3.3163   40.5372   11.8372 C.ar    1  UNL1        0.0207
     27 C           3.9886   40.2085   10.6590 C.ar    1  UNL1        0.0028
     28 C           4.2419   41.1952    9.7048 C.ar    1  UNL1        0.0148
     29 N           3.1592   42.8039   11.0996 N.ar    1  UNL1       -0.2481
@<TRIPOS>BOND
     1    22    21    1
     2    22    23    1
     3    22     2    1
     4    23    24    1
     5    25    29   ar
     6    26    27   ar
     7    28    24   ar
     8     1     3   am
     9     7    11   ar
    10     8    11   ar
    11    12     8    1
    12    12    13    1
    13    13    19    1
    14    14    16   ar
    15    15    14    1
    16    17    19   ar
    17    18    17    1
    18     2     1   am
    19     3     7    1
    20     9    10   ar
    21    19    20   ar
    22    24    29   ar
    23    25    26   ar
    24    27    28   ar
    25     1     4    2
    26     7     9   ar
    27     8    10   ar
    28    14    20   ar
    29    16    17   ar
    30     2     5    1
    31     3     6    1
@<TRIPOS>MOLECULE
MolPort-005-107-313 CSSS00160421858 MCULE-3921337657 PubChem-45224063
 29 31 0 0 0
SMALL
GASTEIGER

@<TRIPOS>ATOM
      1 C           6.1209   40.8299    8.2645 C.2     1  UNL1        0.3059
      2 N           4.7686   40.8956    8.7156 N.am    1  UNL1       -0.2899
      3 N           6.3810   40.6150    6.8741 N.am    1  UNL1       -0.2471
      4 O           7.0694   40.9611    9.0853 O.2     1  UNL1       -0.2524
      5 H           4.0419   40.7893    8.0599 H       1  UNL1        0.1509
      6 H           5.6049   40.5194    6.2760 H       1  UNL1        0.1584
      7 C           7.6825   40.5285    6.2863 C.ar    1  UNL1        0.1889
      8 C           9.9915   40.6366    5.6785 C.ar    1  UNL1        0.1143
      9 N           7.9529   39.8943    5.1239 N.ar    1  UNL1       -0.1256
     10 N           9.2390   39.9592    4.7838 N.ar    1  UNL1       -0.1440
     11 S           9.0620   41.2171    6.9588 S.2     1  UNL1       -0.0346
     12 C          11.4483   40.8969    5.5016 C.3     1  UNL1        0.0808
     13 C          12.1635   40.9008    6.8470 C.3     1  UNL1        0.1340
     14 C          14.6028   43.4058    6.2488 C.ar    1  UNL1        0.0801
     15 C          15.1044   44.5974    5.5154 C.3     1  UNL1        0.0540
     16 C          15.2742   42.7672    7.2805 C.ar    1  UNL1        0.0308
     17 C          14.4038   41.7452    7.6103 C.ar    1  UNL1        0.0571
     18 C          14.6437   40.7277    8.6721 C.3     1  UNL1        0.0517
     19 N          13.3115   41.7994    6.8243 N.ar    1  UNL1       -0.2548
     20 N          13.4253   42.8098    5.9831 N.ar    1  UNL1       -0.1740
     21 C           3.5579   39.9812   10.6255 C.3     1  UNL1        0.0217
     22 C           4.4291   41.1148   10.1137 C.3     1  UNL1        0.0790
     23 C           3.7584   42.4764   10.3124 C.3     1  UNL1        0.0654
     24 C           4.0952   43.4764    9.2487 C.ar    1  UNL1        0.0607
     25 C           3.3466   45.0100    7.5946 C.ar    1  UNL1        0.0984
     26 C           4.6631   45.3730    7.3024 C.ar    1  UNL1        0.0207
     27 C           5.7073   44.7741    8.0087 C.ar    1  UNL1        0.0028
     28 C           5.4265   43.8226    8.9907 C.ar    1  UNL1        0.0148
     29 N           3.0922   44.0806    8.5549 N.ar    1  UNL1       -0.2481
@<TRIPOS>BOND
     1    22    21    1
     2    22    23    1
     3    22     2    1
     4    23    24    1
     5    25    29   ar
     6    26    27   ar
     7    28    24   ar
     8     1     3   am
     9     7    11   ar
    10     8    11   ar
    11    12     8    1
    12    12    13    1
    13    13    19    1
    14    14    16   ar
    15    15    14    1
    16    17    19   ar
    17    18    17    1
    18     2     1   am
    19     3     7    1
    20     9    10   ar
    21    19    20   ar
    22    24    29   ar
    23    25    26   ar
    24    27    28   ar
    25     1     4    2
    26     7     9   ar
    27     8    10   ar
    28    14    20   ar
    29    16    17   ar
    30     2     5    1
    31     3     6    1
@<TRIPOS>MOLECULE
MolPort-005-107-313 CSSS00160421858 MCULE-3921337657 PubChem-45224063
 29 31 0 0 0
SMALL
GASTEIGER

@<TRIPOS>ATOM
      1 C          12.4372   41.1854    9.3451 C.2     1  UNL1        0.3059
      2 N          13.5258   40.4115    9.8480 N.am    1  UNL1       -0.2899
      3 N          11.4400   41.6577   10.2558 N.am    1  UNL1       -0.2471
      4 O          12.3616   41.4467    8.1136 O.2     1  UNL1       -0.2524
      5 H          13.5665   40.2167   10.8121 H       1  UNL1        0.1509
      6 H          11.5466   41.4259   11.2067 H       1  UNL1        0.1584
      7 C          10.2999   42.4409    9.8906 C.ar    1  UNL1        0.1889
      8 C           8.3899   43.4776    8.8957 C.ar    1  UNL1        0.1143
      9 N           9.7983   43.4503   10.6365 N.ar    1  UNL1       -0.1256
     10 N           8.7369   44.0302   10.0789 N.ar    1  UNL1       -0.1440
     11 S           9.4277   42.2201    8.4695 S.2     1  UNL1       -0.0346
     12 C           7.2724   43.9800    8.0470 C.3     1  UNL1        0.0808
     13 C           6.3497   42.8385    7.6379 C.3     1  UNL1        0.1340
     14 C           4.4257   41.5669   10.3331 C.ar    1  UNL1        0.0801
     15 C           4.1783   40.5765   11.4135 C.3     1  UNL1        0.0540
     16 C           3.6051   42.6461   10.0416 C.ar    1  UNL1        0.0308
     17 C           4.2635   43.2387    8.9804 C.ar    1  UNL1        0.0571
     18 C           3.7982   44.4562    8.2583 C.3     1  UNL1        0.0517
     19 N           5.3826   42.5479    8.6895 N.ar    1  UNL1       -0.2548
     20 N           5.4889   41.5188    9.5087 N.ar    1  UNL1       -0.1740
     21 C          14.6615   38.3891    9.0934 C.3     1  UNL1        0.0217
     22 C          14.5777   39.9011    8.9813 C.3     1  UNL1        0.0790
     23 C          15.9210   40.5658    9.2925 C.3     1  UNL1        0.0654
     24 C          16.1735   41.8150    8.5047 C.ar    1  UNL1        0.0607
     25 C          15.4416   43.3503    6.8446 C.ar    1  UNL1        0.0984
     26 C          16.5686   44.1483    7.0530 C.ar    1  UNL1        0.0207
     27 C          17.5059   43.7653    8.0137 C.ar    1  UNL1        0.0028
     28 C          17.3097   42.5950    8.7485 C.ar    1  UNL1        0.0148
     29 N          15.2673   42.2129    7.5703 N.ar    1  UNL1       -0.2481
@<TRIPOS>BOND
     1    22    21    1
     2    22    23    1
     3    22     2    1
     4    23    24    1
     5    25    29   ar
     6    26    27   ar
     7    28    24   ar
     8     1     3   am
     9     7    11   ar
    10     8    11   ar
    11    12     8    1
    12    12    13    1
    13    13    19    1
    14    14    16   ar
    15    15    14    1
    16    17    19   ar
    17    18    17    1
    18     2     1   am
    19     3     7    1
    20     9    10   ar
    21    19    20   ar
    22    24    29   ar
    23    25    26   ar
    24    27    28   ar
    25     1     4    2
    26     7     9   ar
    27     8    10   ar
    28    14    20   ar
    29    16    17   ar
    30     2     5    1
    31     3     6    1
@<TRIPOS>MOLECULE
MolPort-005-107-313 CSSS00160421858 MCULE-3921337657 PubChem-45224063
 29 31 0 0 0
SMALL
GASTEIGER

@<TRIPOS>ATOM
      1 C           7.1527   41.3867   10.2040 C.2     1  UNL1        0.3059
      2 N           5.7697   41.1795    9.9192 N.am    1  UNL1       -0.2899
      3 N           8.1292   40.9920    9.2358 N.am    1  UNL1       -0.2471
      4 O           7.5026   41.9119   11.2960 O.2     1  UNL1       -0.2524
      5 H           5.5164   40.7666    9.0621 H       1  UNL1        0.1509
      6 H           7.8028   40.5871    8.3999 H       1  UNL1        0.1584
      7 C           9.5439   41.1407    9.3892 C.ar    1  UNL1        0.1889
      8 C          11.9074   40.9184    9.6662 C.ar    1  UNL1        0.1143
      9 N          10.1864   42.3294    9.4177 N.ar    1  UNL1       -0.1256
     10 N          11.5028   42.2044    9.5768 N.ar    1  UNL1       -0.1440
     11 S          10.6078   39.8501    9.5671 S.2     1  UNL1       -0.0346
     12 C          13.3224   40.5134    9.9015 C.3     1  UNL1        0.0808
     13 C          14.0114   40.1695    8.5868 C.3     1  UNL1        0.1340
     14 C          16.5380   42.5855    7.9844 C.ar    1  UNL1        0.0801
     15 C          17.8796   43.1706    8.2433 C.3     1  UNL1        0.0540
     16 C          15.6199   43.0774    7.0688 C.ar    1  UNL1        0.0308
     17 C          14.5625   42.1985    7.2106 C.ar    1  UNL1        0.0571
     18 C          13.2807   42.2747    6.4547 C.3     1  UNL1        0.0517
     19 N          14.8582   41.2688    8.1391 N.ar    1  UNL1       -0.2548
     20 N          16.0639   41.4995    8.6233 N.ar    1  UNL1       -0.1740
     21 C           4.2520   40.3446   11.6365 C.3     1  UNL1        0.0217
     22 C           4.7217   41.5589   10.8550 C.3     1  UNL1        0.0790
     23 C           3.5614   42.2502   10.1346 C.3     1  UNL1        0.0654
     24 C           3.9963   43.3059    9.1643 C.ar    1  UNL1        0.0607
     25 C           3.4042   45.0510    7.6635 C.ar    1  UNL1        0.0984
     26 C           4.7504   45.3086    7.3957 C.ar    1  UNL1        0.0207
     27 C           5.7297   44.5479    8.0361 C.ar    1  UNL1        0.0028
     28 C           5.3554   43.5423    8.9289 C.ar    1  UNL1        0.0148
     29 N           3.0584   44.0667    8.5365 N.ar    1  UNL1       -0.2481
@<TRIPOS>BOND
     1    22    21    1
     2    22    23    1
     3    22     2    1
     4    23    24    1
     5    25    29   ar
     6    26    27   ar
     7    28    24   ar
     8     1     3   am
     9     7    11   ar
    10     8    11   ar
    11    12     8    1
    12    12    13    1
    13    13    19    1
    14    14    16   ar
    15    15    14    1
    16    17    19   ar
    17    18    17    1
    18     2     1   am
    19     3     7    1
    20     9    10   ar
    21    19    20   ar
    22    24    29   ar
    23    25    26   ar
    24    27    28   ar
    25     1     4    2
    26     7     9   ar
    27     8    10   ar
    28    14    20   ar
    29    16    17   ar
    30     2     5    1
    31     3     6    1
@<TRIPOS>MOLECULE
MolPort-005-107-313 CSSS00160421858 MCULE-3921337657 PubChem-45224063
 29 31 0 0 0
SMALL
GASTEIGER

@<TRIPOS>ATOM
      1 C          12.9259   42.5278    6.5813 C.2     1  UNL1        0.3059
      2 N          14.3062   42.6813    6.2533 N.am    1  UNL1       -0.2899
      3 N          12.1146   41.6570    5.7873 N.am    1  UNL1       -0.2471
      4 O          12.4341   43.1534    7.5598 O.2     1  UNL1       -0.2524
      5 H          14.6713   42.1859    5.4848 H       1  UNL1        0.1509
      6 H          12.5479   41.1924    5.0352 H       1  UNL1        0.1584
      7 C          10.7220   41.4098    6.0023 C.ar    1  UNL1        0.1889
      8 C           8.5175   40.9731    6.8161 C.ar    1  UNL1        0.1143
      9 N           9.7986   41.3453    5.0175 N.ar    1  UNL1       -0.1256
     10 N           8.5714   41.0973    5.4717 N.ar    1  UNL1       -0.1440
     11 S          10.0391   41.1529    7.5179 S.2     1  UNL1       -0.0346
     12 C           7.2721   40.6406    7.5643 C.3     1  UNL1        0.0808
     13 C           7.2346   41.3699    8.9016 C.3     1  UNL1        0.1340
     14 C           4.5997   43.7220    8.5721 C.ar    1  UNL1        0.0801
     15 C           3.9345   44.8552    7.8775 C.3     1  UNL1        0.0540
     16 C           4.1180   43.0956    9.7117 C.ar    1  UNL1        0.0308
     17 C           5.0811   42.1327    9.9482 C.ar    1  UNL1        0.0571
     18 C           5.0632   41.1664   11.0823 C.3     1  UNL1        0.0517
     19 N           6.0426   42.2029    9.0076 N.ar    1  UNL1       -0.2548
     20 N           5.7604   43.1764    8.1627 N.ar    1  UNL1       -0.1740
     21 C          15.4299   44.8462    6.2693 C.3     1  UNL1        0.0217
     22 C          15.1916   43.5468    7.0181 C.3     1  UNL1        0.0790
     23 C          16.5067   42.8371    7.3501 C.3     1  UNL1        0.0654
     24 C          16.3581   41.7228    8.3406 C.ar    1  UNL1        0.0607
     25 C          17.3655   40.2769    9.9353 C.ar    1  UNL1        0.0984
     26 C          16.1291   39.6948   10.2227 C.ar    1  UNL1        0.0207
     27 C          14.9910   40.1487    9.5544 C.ar    1  UNL1        0.0028
     28 C          15.1006   41.1706    8.6100 C.ar    1  UNL1        0.0148
     29 N          17.4530   41.2718    9.0116 N.ar    1  UNL1       -0.2481
@<TRIPOS>BOND
     1    22    21    1
     2    22    23    1
     3    22     2    1
     4    23    24    1
     5    25    29   ar
     6    26    27   ar
     7    28    24   ar
     8     1     3   am
     9     7    11   ar
    10     8    11   ar
    11    12     8    1
    12    12    13    1
    13    13    19    1
    14    14    16   ar
    15    15    14    1
    16    17    19   ar
    17    18    17    1
    18     2     1   am
    19     3     7    1
    20     9    10   ar
    21    19    20   ar
    22    24    29   ar
    23    25    26   ar
    24    27    28   ar
    25     1     4    2
    26     7     9   ar
    27     8    10   ar
    28    14    20   ar
    29    16    17   ar
    30     2     5    1
    31     3     6    1
@<TRIPOS>MOLECULE
MolPort-005-107-313 CSSS00160421858 MCULE-3921337657 PubChem-45224063
 29 31 0 0 0
SMALL
GASTEIGER

@<TRIPOS>ATOM
      1 C          10.1579   41.3503    9.4151 C.2     1  UNL1        0.3059
      2 N           8.7442   41.5413    9.4552 N.am    1  UNL1       -0.2899
      3 N          10.7737   40.5036   10.3902 N.am    1  UNL1       -0.2471
      4 O          10.8493   41.9224    8.5290 O.2     1  UNL1       -0.2524
      5 H           8.2218   41.0874   10.1555 H       1  UNL1        0.1509
      6 H          10.1884   40.0809   11.0596 H       1  UNL1        0.1584
      7 C          12.1746   40.2240   10.4670 C.ar    1  UNL1        0.1889
      8 C          14.5275   39.9370   10.1602 C.ar    1  UNL1        0.1143
      9 N          12.7817   39.6605   11.5350 N.ar    1  UNL1       -0.1256
     10 N          14.0919   39.4968   11.3611 N.ar    1  UNL1       -0.1440
     11 S          13.2644   40.5498    9.2279 S.2     1  UNL1       -0.0346
     12 C          15.9403   39.8172    9.7008 C.3     1  UNL1        0.0808
     13 C          16.6919   38.7830   10.5298 C.3     1  UNL1        0.1340
     14 C          16.5811   35.9664    8.3761 C.ar    1  UNL1        0.0801
     15 C          15.9204   35.1418    7.3309 C.3     1  UNL1        0.0540
     16 C          17.8011   35.6729    8.9664 C.ar    1  UNL1        0.0308
     17 C          17.9622   36.7246    9.8489 C.ar    1  UNL1        0.0571
     18 C          19.1242   36.9013   10.7648 C.3     1  UNL1        0.0517
     19 N          16.9097   37.5608    9.7652 N.ar    1  UNL1       -0.2548
     20 N          16.0552   37.1032    8.8698 N.ar    1  UNL1       -0.1740
     21 C           7.8695   43.7834    9.0587 C.3     1  UNL1        0.0217
     22 C           8.0499   42.3853    8.4942 C.3     1  UNL1        0.0790
     23 C           6.7123   41.7664    8.0804 C.3     1  UNL1        0.0654
     24 C           5.6358   41.9094    9.1128 C.ar    1  UNL1        0.0607
     25 C           3.5648   42.8756    9.7652 C.ar    1  UNL1        0.0984
     26 C           3.5897   42.1712   10.9708 C.ar    1  UNL1        0.0207
     27 C           4.6605   41.3169   11.2383 C.ar    1  UNL1        0.0028
     28 C           5.6897   41.1793   10.3056 C.ar    1  UNL1        0.0148
     29 N           4.5770   42.7289    8.8682 N.ar    1  UNL1       -0.2481
@<TRIPOS>BOND
     1    22    21    1
     2    22    23    1
     3    22     2    1
     4    23    24    1
     5    25    29   ar
     6    26    27   ar
     7    28    24   ar
     8     1     3   am
     9     7    11   ar
    10     8    11   ar
    11    12     8    1
    12    12    13    1
    13    13    19    1
    14    14    16   ar
    15    15    14    1
    16    17    19   ar
    17    18    17    1
    18     2     1   am
    19     3     7    1
    20     9    10   ar
    21    19    20   ar
    22    24    29   ar
    23    25    26   ar
    24    27    28   ar
    25     1     4    2
    26     7     9   ar
    27     8    10   ar
    28    14    20   ar
    29    16    17   ar
    30     2     5    1
    31     3     6    1
@<TRIPOS>MOLECULE
MolPort-005-107-313 CSSS00160421858 MCULE-3921337657 PubChem-45224063
 29 31 0 0 0
SMALL
GASTEIGER

@<TRIPOS>ATOM
      1 C          12.8721   40.2607   10.0394 C.2     1  UNL1        0.3059
      2 N          14.2143   39.9290   10.3931 N.am    1  UNL1       -0.2899
      3 N          11.9321   40.5565   11.0766 N.am    1  UNL1       -0.2471
      4 O          12.5259   40.2918    8.8270 O.2     1  UNL1       -0.2524
      5 H          14.4650   39.9084   11.3449 H       1  UNL1        0.1509
      6 H          12.2540   40.5182   12.0062 H       1  UNL1        0.1584
      7 C          10.5601   40.9035   10.8664 C.ar    1  UNL1        0.1889
      8 C           8.2469   41.4930   10.9858 C.ar    1  UNL1        0.1143
      9 N           9.9841   41.0307    9.6504 N.ar    1  UNL1       -0.1256
     10 N           8.6940   41.3546    9.7182 N.ar    1  UNL1       -0.1440
     11 S           9.4655   41.1923   12.1104 S.2     1  UNL1       -0.0346
     12 C           6.8296   41.7976   11.3318 C.3     1  UNL1        0.0808
     13 C           5.8838   41.2383   10.2761 C.3     1  UNL1        0.1340
     14 C           4.7362   43.9920    8.3567 C.ar    1  UNL1        0.0801
     15 C           4.9560   45.0900    7.3794 C.3     1  UNL1        0.0540
     16 C           3.5268   43.7067    8.9725 C.ar    1  UNL1        0.0308
     17 C           3.8494   42.6230    9.7676 C.ar    1  UNL1        0.0571
     18 C           2.9001   41.9123   10.6698 C.3     1  UNL1        0.0517
     19 N           5.1503   42.3101    9.6134 N.ar    1  UNL1       -0.2548
     20 N           5.7043   43.1456    8.7553 N.ar    1  UNL1       -0.1740
     21 C          15.6075   38.1527    9.4690 C.3     1  UNL1        0.0217
     22 C          15.2245   39.6202    9.3919 C.3     1  UNL1        0.0790
     23 C          16.4458   40.5311    9.5401 C.3     1  UNL1        0.0654
     24 C          16.3940   41.7553    8.6778 C.ar    1  UNL1        0.0607
     25 C          15.2274   43.0544    7.0654 C.ar    1  UNL1        0.0984
     26 C          16.2251   44.0311    7.0968 C.ar    1  UNL1        0.0207
     27 C          17.3204   43.8586    7.9443 C.ar    1  UNL1        0.0028
     28 C          17.4079   42.7178    8.7438 C.ar    1  UNL1        0.0148
     29 N          15.3298   41.9490    7.8517 N.ar    1  UNL1       -0.2481
@<TRIPOS>BOND
     1    22    21    1
     2    22    23    1
     3    22     2    1
     4    23    24    1
     5    25    29   ar
     6    26    27   ar
     7    28    24   ar
     8     1     3   am
     9     7    11   ar
    10     8    11   ar
    11    12     8    1
    12    12    13    1
    13    13    19    1
    14    14    16   ar
    15    15    14    1
    16    17    19   ar
    17    18    17    1
    18     2     1   am
    19     3     7    1
    20     9    10   ar
    21    19    20   ar
    22    24    29   ar
    23    25    26   ar
    24    27    28   ar
    25     1     4    2
    26     7     9   ar
    27     8    10   ar
    28    14    20   ar
    29    16    17   ar
    30     2     5    1
    31     3     6    1
@<TRIPOS>MOLECULE
MolPort-005-107-313 CSSS00160421858 MCULE-3921337657 PubChem-45224063
 29 31 0 0 0
SMALL
GASTEIGER

@<TRIPOS>ATOM
      1 C           9.0362   42.2060    8.5591 C.2     1  UNL1        0.3059
      2 N           8.0196   43.1753    8.3070 N.am    1  UNL1       -0.2899
      3 N          10.2692   42.6283    9.1494 N.am    1  UNL1       -0.2471
      4 O           8.8438   40.9950    8.2640 O.2     1  UNL1       -0.2524
      5 H           8.1891   44.1160    8.5429 H       1  UNL1        0.1509
      6 H          10.3679   43.5848    9.3606 H       1  UNL1        0.1584
      7 C          11.3696   41.7671    9.4564 C.ar    1  UNL1        0.1889
      8 C          13.3827   40.4829    9.5597 C.ar    1  UNL1        0.1143
      9 N          11.4509   41.0008   10.5668 N.ar    1  UNL1       -0.1256
     10 N          12.5708   40.2822   10.6210 N.ar    1  UNL1       -0.1440
     11 S          12.7170   41.5797    8.4671 S.2     1  UNL1       -0.0346
     12 C          14.6689   39.7576    9.3565 C.3     1  UNL1        0.0808
     13 C          14.8534   38.6782   10.4160 C.3     1  UNL1        0.1340
     14 C          17.9970   37.0596   10.1309 C.ar    1  UNL1        0.0801
     15 C          19.4305   36.9087   10.4937 C.3     1  UNL1        0.0540
     16 C          17.3181   36.2585    9.2252 C.ar    1  UNL1        0.0308
     17 C          16.0469   36.8010    9.2471 C.ar    1  UNL1        0.0571
     18 C          14.8973   36.3177    8.4315 C.3     1  UNL1        0.0517
     19 N          16.0032   37.8364   10.1074 N.ar    1  UNL1       -0.2548
     20 N          17.1937   38.0068   10.6505 N.ar    1  UNL1       -0.1740
     21 C           6.7613   43.0922    6.2191 C.3     1  UNL1        0.0217
     22 C           6.7402   42.8179    7.7125 C.3     1  UNL1        0.0790
     23 C           5.5862   43.5479    8.4045 C.3     1  UNL1        0.0654
     24 C           4.9064   42.7352    9.4638 C.ar    1  UNL1        0.0607
     25 C           2.8981   42.1309   10.5820 C.ar    1  UNL1        0.0984
     26 C           3.5900   41.2161   11.3787 C.ar    1  UNL1        0.0207
     27 C           4.9656   41.0617   11.2005 C.ar    1  UNL1        0.0028
     28 C           5.6311   41.8206   10.2365 C.ar    1  UNL1        0.0148
     29 N           3.5637   42.8620    9.6476 N.ar    1  UNL1       -0.2481
@<TRIPOS>BOND
     1    22    21    1
     2    22    23    1
     3    22     2    1
     4    23    24    1
     5    25    29   ar
     6    26    27   ar
     7    28    24   ar
     8     1     3   am
     9     7    11   ar
    10     8    11   ar
    11    12     8    1
    12    12    13    1
    13    13    19    1
    14    14    16   ar
    15    15    14    1
    16    17    19   ar
    17    18    17    1
    18     2     1   am
    19     3     7    1
    20     9    10   ar
    21    19    20   ar
    22    24    29   ar
    23    25    26   ar
    24    27    28   ar
    25     1     4    2
    26     7     9   ar
    27     8    10   ar
    28    14    20   ar
    29    16    17   ar
    30     2     5    1
    31     3     6    1
@<TRIPOS>MOLECULE
MolPort-005-107-313 CSSS00160421858 MCULE-3921337657 PubChem-45224063
 29 31 0 0 0
SMALL
GASTEIGER

@<TRIPOS>ATOM
      1 C           8.3690   42.0159    8.4447 C.2     1  UNL1        0.3059
      2 N           6.9916   42.2890    8.1901 N.am    1  UNL1       -0.2899
      3 N           8.7748   40.6688    8.7047 N.am    1  UNL1       -0.2471
      4 O           9.2123   42.9537    8.4382 O.2     1  UNL1       -0.2524
      5 H           6.3482   41.5439    8.2010 H       1  UNL1        0.1509
      6 H           8.0769   39.9745    8.6977 H       1  UNL1        0.1584
      7 C          10.1171   40.2535    8.9741 C.ar    1  UNL1        0.1889
      8 C          12.3704   39.9372    9.7056 C.ar    1  UNL1        0.1143
      9 N          10.7051   39.1698    8.4202 N.ar    1  UNL1       -0.1256
     10 N          11.9621   38.9973    8.8249 N.ar    1  UNL1       -0.1440
     11 S          11.1586   41.0668   10.0147 S.2     1  UNL1       -0.0346
     12 C          13.7503   39.9986   10.2656 C.3     1  UNL1        0.0808
     13 C          14.7876   39.7820    9.1708 C.3     1  UNL1        0.1340
     14 C          14.6133   42.6318    7.0656 C.ar    1  UNL1        0.0801
     15 C          13.8896   43.5160    6.1150 C.3     1  UNL1        0.0540
     16 C          15.9148   42.8300    7.5013 C.ar    1  UNL1        0.0308
     17 C          16.1076   41.7569    8.3511 C.ar    1  UNL1        0.0571
     18 C          17.3663   41.4722    9.0960 C.3     1  UNL1        0.0517
     19 N          14.9933   41.0020    8.3992 N.ar    1  UNL1       -0.2548
     20 N          14.0734   41.5260    7.6115 N.ar    1  UNL1       -0.1740
     21 C           7.3317   44.6542    8.6795 C.3     1  UNL1        0.0217
     22 C           6.5074   43.6335    7.9148 C.3     1  UNL1        0.0790
     23 C           5.0155   43.7595    8.2334 C.3     1  UNL1        0.0654
     24 C           4.5513   42.8423    9.3234 C.ar    1  UNL1        0.0607
     25 C           5.0249   41.6976   11.3517 C.ar    1  UNL1        0.0984
     26 C           3.7258   41.1869   11.3936 C.ar    1  UNL1        0.0207
     27 C           2.8289   41.5231   10.3785 C.ar    1  UNL1        0.0028
     28 C           3.2383   42.3580    9.3375 C.ar    1  UNL1        0.0148
     29 N           5.4061   42.5098   10.3291 N.ar    1  UNL1       -0.2481
@<TRIPOS>BOND
     1    22    21    1
     2    22    23    1
     3    22     2    1
     4    23    24    1
     5    25    29   ar
     6    26    27   ar
     7    28    24   ar
     8     1     3   am
     9     7    11   ar
    10     8    11   ar
    11    12     8    1
    12    12    13    1
    13    13    19    1
    14    14    16   ar
    15    15    14    1
    16    17    19   ar
    17    18    17    1
    18     2     1   am
    19     3     7    1
    20     9    10   ar
    21    19    20   ar
    22    24    29   ar
    23    25    26   ar
    24    27    28   ar
    25     1     4    2
    26     7     9   ar
    27     8    10   ar
    28    14    20   ar
    29    16    17   ar
    30     2     5    1
    31     3     6    1
