@<TRIPOS>MOLECULE
MolPort-035-706-976 CSSS03437789231 MCULE-8811636795 PubChem-91938301
 28 30 0 0 0
SMALL
GASTEIGER

@<TRIPOS>ATOM
      1 C          17.7466   35.2134    8.5034 C.3     1  UNL1        0.2880
      2 C          16.4629   35.6950    9.1644 C.3     1  UNL1        0.0650
      3 C          18.0296   35.1519    6.0042 C.ar    1  UNL1        0.1542
      4 C          17.6712   34.5547    4.7921 C.ar    1  UNL1        0.0529
      5 C          18.2864   34.9469    3.5979 C.ar    1  UNL1        0.0537
      6 C          19.2677   35.9500    3.6284 C.ar    1  UNL1        0.0162
      7 C          19.6262   36.5519    4.8377 C.ar    1  UNL1        0.0190
      8 C          19.0071   36.1516    6.0240 C.ar    1  UNL1        0.0850
      9 C          18.7441   36.3545    8.4796 C.2     1  UNL1        0.2732
     10 O          17.4036   34.7476    7.1883 O.3     1  UNL1       -0.4618
     11 O          19.0621   36.9376    9.5510 O.2     1  UNL1       -0.2704
     12 N          19.3557   36.7677    7.2578 N.am    1  UNL1       -0.2783
     13 H          20.0269   37.4878    7.2692 H       1  UNL1        0.1551
     14 C          18.5788   34.3569    1.1183 C.2     1  UNL1        0.2555
     15 O          19.6491   35.0100    0.9909 O.2     1  UNL1       -0.2693
     16 N          17.8913   34.3074    2.3767 N.am    1  UNL1       -0.2799
     17 H          17.0612   33.7789    2.4047 H       1  UNL1        0.1552
     18 C          18.0283   33.6373   -0.0359 C.ar    1  UNL1        0.0828
     19 C          18.5519   33.6640   -1.3245 C.ar    1  UNL1        0.0112
     20 C          17.8202   32.8812   -2.2286 C.ar    1  UNL1        0.0028
     21 C          16.7345   32.2530   -1.6360 C.ar    1  UNL1        0.0078
     22 C          15.7753   31.3604   -2.3369 C.3     1  UNL1        0.0382
     23 S          16.6651   32.6511   -0.0072 S.2     1  UNL1       -0.0867
     24 C          18.3292   34.0675    9.2852 C.2     1  UNL1        0.3623
     25 O          18.0933   32.8759    8.9391 O.2     1  UNL1       -0.2457
     26 O          19.0803   34.3307   10.4332 O.3     1  UNL1       -0.4458
     27 C          19.6055   35.4238   12.4983 C.3     1  UNL1        0.0513
     28 C          18.9896   35.5679   11.1229 C.3     1  UNL1        0.2087
@<TRIPOS>BOND
     1    27    28    1
     2    28    26    1
     3    24    26    1
     4     1    24    1
     5     1     2    1
     6     1    10    1
     7     1     9    1
     8     3    10    1
     9     4     5   ar
    10     5    16    1
    11    14    18    1
    12    18    23   ar
    13    19    20   ar
    14    21    23   ar
    15    22    21    1
    16     6     7   ar
    17     8    12    1
    18     8     3   ar
    19    16    14   am
    20    12     9   am
    21    24    25    2
    22     3     4   ar
    23     5     6   ar
    24    14    15    2
    25    18    19   ar
    26    20    21   ar
    27     7     8   ar
    28     9    11    2
    29    16    17    1
    30    12    13    1
@<TRIPOS>MOLECULE
MolPort-035-706-976 CSSS03437789231 MCULE-8811636795 PubChem-91938301
 28 30 0 0 0
SMALL
GASTEIGER

@<TRIPOS>ATOM
      1 C          16.1539   39.4328   10.1967 C.3     1  UNL1        0.2880
      2 C          17.3287   40.3053    9.7781 C.3     1  UNL1        0.0650
      3 C          13.8150   39.8387    9.3632 C.ar    1  UNL1        0.1542
      4 C          12.6811   40.6560    9.3862 C.ar    1  UNL1        0.0529
      5 C          11.5247   40.2860    8.6905 C.ar    1  UNL1        0.0537
      6 C          11.5148   39.0843    7.9652 C.ar    1  UNL1        0.0162
      7 C          12.6476   38.2662    7.9370 C.ar    1  UNL1        0.0190
      8 C          13.7959   38.6442    8.6365 C.ar    1  UNL1        0.0850
      9 C          16.1316   38.1905    9.3286 C.2     1  UNL1        0.2732
     10 O          14.9625   40.2248   10.0643 O.3     1  UNL1       -0.4618
     11 O          17.1500   37.4509    9.2582 O.2     1  UNL1       -0.2704
     12 N          14.9581   37.8249    8.6027 N.am    1  UNL1       -0.2783
     13 H          14.9532   36.9955    8.0722 H       1  UNL1        0.1551
     14 C          10.3921   42.5847    8.8140 C.2     1  UNL1        0.2555
     15 O          11.4778   43.2241    8.8391 O.2     1  UNL1       -0.2693
     16 N          10.3827   41.1517    8.7420 N.am    1  UNL1       -0.2799
     17 H           9.4994   40.7172    8.7262 H       1  UNL1        0.1552
     18 C           9.1205   43.3154    8.8592 C.ar    1  UNL1        0.0828
     19 C           8.8200   44.3529    9.7360 C.ar    1  UNL1        0.0112
     20 C           7.5285   44.8668    9.5532 C.ar    1  UNL1        0.0028
     21 C           6.8360   44.2251    8.5367 C.ar    1  UNL1        0.0078
     22 C           5.4494   44.5473    8.1105 C.3     1  UNL1        0.0382
     23 S           7.7983   43.0292    7.8584 S.2     1  UNL1       -0.0867
     24 C          16.3045   39.0235   11.6367 C.2     1  UNL1        0.3623
     25 O          17.4063   39.1861   12.2326 O.2     1  UNL1       -0.2457
     26 O          15.2364   38.4047   12.2902 O.3     1  UNL1       -0.4458
     27 C          13.4250   37.0113   11.5741 C.3     1  UNL1        0.0513
     28 C          14.8699   37.0597   12.0232 C.3     1  UNL1        0.2087
@<TRIPOS>BOND
     1    27    28    1
     2    28    26    1
     3    24    26    1
     4     1    24    1
     5     1     2    1
     6     1    10    1
     7     1     9    1
     8     3    10    1
     9     4     5   ar
    10     5    16    1
    11    14    18    1
    12    18    23   ar
    13    19    20   ar
    14    21    23   ar
    15    22    21    1
    16     6     7   ar
    17     8    12    1
    18     8     3   ar
    19    16    14   am
    20    12     9   am
    21    24    25    2
    22     3     4   ar
    23     5     6   ar
    24    14    15    2
    25    18    19   ar
    26    20    21   ar
    27     7     8   ar
    28     9    11    2
    29    16    17    1
    30    12    13    1
@<TRIPOS>MOLECULE
MolPort-035-706-976 CSSS03437789231 MCULE-8811636795 PubChem-91938301
 28 30 0 0 0
SMALL
GASTEIGER

@<TRIPOS>ATOM
      1 C           7.0970   41.5005    7.4846 C.3     1  UNL1        0.2880
      2 C           6.3752   41.1495    8.7779 C.3     1  UNL1        0.0650
      3 C           9.5605   41.0985    7.1695 C.ar    1  UNL1        0.1542
      4 C          10.8668   41.4611    7.5109 C.ar    1  UNL1        0.0529
      5 C          11.9597   40.8548    6.8814 C.ar    1  UNL1        0.0537
      6 C          11.7313   39.8746    5.9030 C.ar    1  UNL1        0.0162
      7 C          10.4270   39.5070    5.5614 C.ar    1  UNL1        0.0190
      8 C           9.3434   40.1199    6.1947 C.ar    1  UNL1        0.0850
      9 C           6.8963   40.3748    6.4897 C.2     1  UNL1        0.2732
     10 O           8.4800   41.7149    7.8096 O.3     1  UNL1       -0.4618
     11 O           5.7314   40.0000    6.1867 O.2     1  UNL1       -0.2704
     12 N           8.0125   39.7427    5.8634 N.am    1  UNL1       -0.2783
     13 H           7.8593   39.0372    5.1941 H       1  UNL1        0.1551
     14 C          13.9860   42.4271    6.8161 C.2     1  UNL1        0.2555
     15 O          13.4529   43.2355    6.0097 O.2     1  UNL1       -0.2693
     16 N          13.2831   41.2573    7.2593 N.am    1  UNL1       -0.2799
     17 H          13.7595   40.6692    7.8890 H       1  UNL1        0.1552
     18 C          15.3439   42.6853    7.3085 C.ar    1  UNL1        0.0828
     19 C          16.0205   41.9105    8.2451 C.ar    1  UNL1        0.0112
     20 C          17.3057   42.3934    8.5287 C.ar    1  UNL1        0.0028
     21 C          17.6176   43.5389    7.8109 C.ar    1  UNL1        0.0078
     22 C          18.9030   44.2793    7.8976 C.3     1  UNL1        0.0382
     23 S          16.3256   43.9649    6.8283 S.2     1  UNL1       -0.0867
     24 C           6.5332   42.7713    6.9094 C.2     1  UNL1        0.3623
     25 O           6.4982   42.9429    5.6584 O.2     1  UNL1       -0.2457
     26 O           6.1074   43.7854    7.7704 O.3     1  UNL1       -0.4458
     27 C           3.8900   43.8281    8.6740 C.3     1  UNL1        0.0513
     28 C           4.8343   44.3985    7.6373 C.3     1  UNL1        0.2087
@<TRIPOS>BOND
     1    27    28    1
     2    28    26    1
     3    24    26    1
     4     1    24    1
     5     1     2    1
     6     1    10    1
     7     1     9    1
     8     3    10    1
     9     4     5   ar
    10     5    16    1
    11    14    18    1
    12    18    23   ar
    13    19    20   ar
    14    21    23   ar
    15    22    21    1
    16     6     7   ar
    17     8    12    1
    18     8     3   ar
    19    16    14   am
    20    12     9   am
    21    24    25    2
    22     3     4   ar
    23     5     6   ar
    24    14    15    2
    25    18    19   ar
    26    20    21   ar
    27     7     8   ar
    28     9    11    2
    29    16    17    1
    30    12    13    1
@<TRIPOS>MOLECULE
MolPort-035-706-976 CSSS03437789231 MCULE-8811636795 PubChem-91938301
 28 30 0 0 0
SMALL
GASTEIGER

@<TRIPOS>ATOM
      1 C          14.3415   39.2997   10.1595 C.3     1  UNL1        0.2880
      2 C          15.4918   40.2947   10.0997 C.3     1  UNL1        0.0650
      3 C          12.0617   39.8246    9.2338 C.ar    1  UNL1        0.1542
      4 C          10.8818   40.5642    9.3565 C.ar    1  UNL1        0.0529
      5 C           9.8140   40.3487    8.4781 C.ar    1  UNL1        0.0537
      6 C           9.9401   39.3819    7.4683 C.ar    1  UNL1        0.0162
      7 C          11.1193   38.6430    7.3403 C.ar    1  UNL1        0.0190
      8 C          12.1783   38.8649    8.2236 C.ar    1  UNL1        0.0850
      9 C          14.4700   38.3311    9.0006 C.2     1  UNL1        0.2732
     10 O          13.1193   40.0538   10.1206 O.3     1  UNL1       -0.4618
     11 O          15.5343   37.6747    8.8413 O.2     1  UNL1       -0.2704
     12 N          13.3874   38.1272    8.0928 N.am    1  UNL1       -0.2783
     13 H          13.4788   37.4680    7.3673 H       1  UNL1        0.1551
     14 C           7.9042   41.8270    7.6125 C.2     1  UNL1        0.2555
     15 O           8.3013   41.8045    6.4167 O.2     1  UNL1       -0.2693
     16 N           8.6206   41.1271    8.6400 N.am    1  UNL1       -0.2799
     17 H           8.2544   41.1877    9.5518 H       1  UNL1        0.1552
     18 C           6.6927   42.5790    7.9588 C.ar    1  UNL1        0.0828
     19 C           5.8812   42.3327    9.0616 C.ar    1  UNL1        0.0112
     20 C           4.7895   43.2084    9.1439 C.ar    1  UNL1        0.0028
     21 C           4.7613   44.1277    8.1053 C.ar    1  UNL1        0.0078
     22 C           3.7287   45.1806    7.9227 C.3     1  UNL1        0.0382
     23 S           6.0686   43.8741    7.0841 S.2     1  UNL1       -0.0867
     24 C          14.3937   38.5302   11.4513 C.2     1  UNL1        0.3623
     25 O          15.3686   38.6773   12.2408 O.2     1  UNL1       -0.2457
     26 O          13.3878   37.6052   11.7410 O.3     1  UNL1       -0.4458
     27 C          12.0480   35.9670   10.6201 C.3     1  UNL1        0.0513
     28 C          13.4037   36.2881   11.2123 C.3     1  UNL1        0.2087
@<TRIPOS>BOND
     1    27    28    1
     2    28    26    1
     3    24    26    1
     4     1    24    1
     5     1     2    1
     6     1    10    1
     7     1     9    1
     8     3    10    1
     9     4     5   ar
    10     5    16    1
    11    14    18    1
    12    18    23   ar
    13    19    20   ar
    14    21    23   ar
    15    22    21    1
    16     6     7   ar
    17     8    12    1
    18     8     3   ar
    19    16    14   am
    20    12     9   am
    21    24    25    2
    22     3     4   ar
    23     5     6   ar
    24    14    15    2
    25    18    19   ar
    26    20    21   ar
    27     7     8   ar
    28     9    11    2
    29    16    17    1
    30    12    13    1
@<TRIPOS>MOLECULE
MolPort-035-706-976 CSSS03437789231 MCULE-8811636795 PubChem-91938301
 28 30 0 0 0
SMALL
GASTEIGER

@<TRIPOS>ATOM
      1 C          14.8069   38.6667   10.5770 C.3     1  UNL1        0.2880
      2 C          15.1795   38.7567   12.0501 C.3     1  UNL1        0.0650
      3 C          13.1224   40.2084    9.5208 C.ar    1  UNL1        0.1542
      4 C          11.7825   40.5912    9.4096 C.ar    1  UNL1        0.0529
      5 C          11.4009   41.5853    8.5015 C.ar    1  UNL1        0.0537
      6 C          12.3793   42.1979    7.7030 C.ar    1  UNL1        0.0162
      7 C          13.7204   41.8204    7.8138 C.ar    1  UNL1        0.0190
      8 C          14.0900   40.8258    8.7221 C.ar    1  UNL1        0.0850
      9 C          15.8424   39.4161    9.7624 C.2     1  UNL1        0.2732
     10 O          13.4858   39.2131   10.4344 O.3     1  UNL1       -0.4618
     11 O          17.0631   39.1190    9.8659 O.2     1  UNL1       -0.2704
     12 N          15.4542   40.4443    8.8515 N.am    1  UNL1       -0.2783
     13 H          16.1390   40.8949    8.3063 H       1  UNL1        0.1551
     14 C           9.2177   42.5420    9.4503 C.2     1  UNL1        0.2555
     15 O           9.7122   42.8056   10.5791 O.2     1  UNL1       -0.2693
     16 N          10.0158   41.9467    8.4172 N.am    1  UNL1       -0.2799
     17 H           9.5652   41.7677    7.5604 H       1  UNL1        0.1552
     18 C           7.8066   42.8480    9.1890 C.ar    1  UNL1        0.0828
     19 C           6.7239   42.1097    9.6561 C.ar    1  UNL1        0.0112
     20 C           5.4885   42.6344    9.2511 C.ar    1  UNL1        0.0028
     21 C           5.6207   43.7753    8.4731 C.ar    1  UNL1        0.0078
     22 C           4.4933   44.5539    7.8979 C.3     1  UNL1        0.0382
     23 S           7.2456   44.1467    8.2777 S.2     1  UNL1       -0.0867
     24 C          14.7844   37.2274   10.1392 C.2     1  UNL1        0.3623
     25 O          15.7638   36.4704   10.3906 O.2     1  UNL1       -0.2457
     26 O          13.7005   36.7519    9.3976 O.3     1  UNL1       -0.4458
     27 C          11.7245   36.1219   10.5951 C.3     1  UNL1        0.0513
     28 C          12.9318   35.6366    9.8214 C.3     1  UNL1        0.2087
@<TRIPOS>BOND
     1    27    28    1
     2    28    26    1
     3    24    26    1
     4     1    24    1
     5     1     2    1
     6     1    10    1
     7     1     9    1
     8     3    10    1
     9     4     5   ar
    10     5    16    1
    11    14    18    1
    12    18    23   ar
    13    19    20   ar
    14    21    23   ar
    15    22    21    1
    16     6     7   ar
    17     8    12    1
    18     8     3   ar
    19    16    14   am
    20    12     9   am
    21    24    25    2
    22     3     4   ar
    23     5     6   ar
    24    14    15    2
    25    18    19   ar
    26    20    21   ar
    27     7     8   ar
    28     9    11    2
    29    16    17    1
    30    12    13    1
@<TRIPOS>MOLECULE
MolPort-035-706-976 CSSS03437789231 MCULE-8811636795 PubChem-91938301
 28 30 0 0 0
SMALL
GASTEIGER

@<TRIPOS>ATOM
      1 C           5.3017   42.0540    9.8576 C.3     1  UNL1        0.2880
      2 C           5.0318   41.5495   11.2681 C.3     1  UNL1        0.0650
      3 C           7.5347   41.7702    8.7337 C.ar    1  UNL1        0.1542
      4 C           8.8815   42.1407    8.6782 C.ar    1  UNL1        0.0529
      5 C           9.7153   41.6388    7.6726 C.ar    1  UNL1        0.0537
      6 C           9.1857   40.7555    6.7190 C.ar    1  UNL1        0.0162
      7 C           7.8406   40.3800    6.7732 C.ar    1  UNL1        0.0190
      8 C           7.0168   40.8884    7.7801 C.ar    1  UNL1        0.0850
      9 C           4.7929   41.0285    8.8640 C.2     1  UNL1        0.2732
     10 O           6.7160   42.2814    9.7464 O.3     1  UNL1       -0.4618
     11 O           3.5924   40.6468    8.9094 O.2     1  UNL1       -0.2704
     12 N           5.6498   40.5015    7.8514 N.am    1  UNL1       -0.2783
     13 H           5.2904   39.8625    7.1943 H       1  UNL1        0.1551
     14 C          12.0477   41.7850    6.6141 C.2     1  UNL1        0.2555
     15 O          11.7248   41.1363    5.5830 O.2     1  UNL1       -0.2693
     16 N          11.0901   42.0458    7.6503 N.am    1  UNL1       -0.2799
     17 H          11.4106   42.5580    8.4276 H       1  UNL1        0.1552
     18 C          13.4215   42.2803    6.7570 C.ar    1  UNL1        0.0828
     19 C          14.3705   41.7753    7.6400 C.ar    1  UNL1        0.0112
     20 C          15.6011   42.4425    7.5610 C.ar    1  UNL1        0.0028
     21 C          15.5986   43.4599    6.6179 C.ar    1  UNL1        0.0078
     22 C          16.7540   44.3413    6.3075 C.3     1  UNL1        0.0382
     23 S          14.0948   43.5476    5.8781 S.2     1  UNL1       -0.0867
     24 C           4.5835   43.3565    9.6309 C.2     1  UNL1        0.3623
     25 O           3.3660   43.4751    9.9458 O.2     1  UNL1       -0.2457
     26 O           5.2556   44.4128    9.0116 O.3     1  UNL1       -0.4458
     27 C           3.6070   45.1846    7.4554 C.3     1  UNL1        0.0513
     28 C           5.0420   44.7424    7.6477 C.3     1  UNL1        0.2087
@<TRIPOS>BOND
     1    27    28    1
     2    28    26    1
     3    24    26    1
     4     1    24    1
     5     1     2    1
     6     1    10    1
     7     1     9    1
     8     3    10    1
     9     4     5   ar
    10     5    16    1
    11    14    18    1
    12    18    23   ar
    13    19    20   ar
    14    21    23   ar
    15    22    21    1
    16     6     7   ar
    17     8    12    1
    18     8     3   ar
    19    16    14   am
    20    12     9   am
    21    24    25    2
    22     3     4   ar
    23     5     6   ar
    24    14    15    2
    25    18    19   ar
    26    20    21   ar
    27     7     8   ar
    28     9    11    2
    29    16    17    1
    30    12    13    1
@<TRIPOS>MOLECULE
MolPort-035-706-976 CSSS03437789231 MCULE-8811636795 PubChem-91938301
 28 30 0 0 0
SMALL
GASTEIGER

@<TRIPOS>ATOM
      1 C          14.8378   38.6994   10.4973 C.3     1  UNL1        0.2880
      2 C          15.4419   38.6917   11.8944 C.3     1  UNL1        0.0650
      3 C          12.6530   39.8369    9.9847 C.ar    1  UNL1        0.1542
      4 C          11.2632   39.8420   10.1357 C.ar    1  UNL1        0.0529
      5 C          10.4816   40.8024    9.4838 C.ar    1  UNL1        0.0537
      6 C          11.1081   41.7648    8.6768 C.ar    1  UNL1        0.0162
      7 C          12.4975   41.7651    8.5261 C.ar    1  UNL1        0.0190
      8 C          13.2680   40.8008    9.1798 C.ar    1  UNL1        0.0850
      9 C          15.4810   39.8100    9.6908 C.2     1  UNL1        0.2732
     10 O          13.4187   38.8695   10.6443 O.3     1  UNL1       -0.4618
     11 O          16.7345   39.8542    9.5646 O.2     1  UNL1       -0.2704
     12 N          14.6839   40.8014    9.0433 N.am    1  UNL1       -0.2783
     13 H          15.1193   41.4940    8.4956 H       1  UNL1        0.1551
     14 C           8.2227   41.8535   10.0961 C.2     1  UNL1        0.2555
     15 O           8.7135   42.9824   10.3662 O.2     1  UNL1       -0.2693
     16 N           9.0592   40.7709    9.6636 N.am    1  UNL1       -0.2799
     17 H           8.6095   39.9168    9.4699 H       1  UNL1        0.1552
     18 C           6.7763   41.6432   10.2255 C.ar    1  UNL1        0.0828
     19 C           6.1099   41.3455   11.4099 C.ar    1  UNL1        0.0112
     20 C           4.7266   41.1975   11.2369 C.ar    1  UNL1        0.0028
     21 C           4.3291   41.3812    9.9205 C.ar    1  UNL1        0.0078
     22 C           2.9301   41.2883    9.4284 C.3     1  UNL1        0.0382
     23 S           5.6650   41.7250    8.9646 S.2     1  UNL1       -0.0867
     24 C          15.0988   37.3832    9.8168 C.2     1  UNL1        0.3623
     25 O          15.6959   37.3494    8.7042 O.2     1  UNL1       -0.2457
     26 O          14.6200   36.2047   10.3938 O.3     1  UNL1       -0.4458
     27 C          12.2980   35.6414   10.5560 C.3     1  UNL1        0.0513
     28 C          13.5885   35.4383    9.7911 C.3     1  UNL1        0.2087
@<TRIPOS>BOND
     1    27    28    1
     2    28    26    1
     3    24    26    1
     4     1    24    1
     5     1     2    1
     6     1    10    1
     7     1     9    1
     8     3    10    1
     9     4     5   ar
    10     5    16    1
    11    14    18    1
    12    18    23   ar
    13    19    20   ar
    14    21    23   ar
    15    22    21    1
    16     6     7   ar
    17     8    12    1
    18     8     3   ar
    19    16    14   am
    20    12     9   am
    21    24    25    2
    22     3     4   ar
    23     5     6   ar
    24    14    15    2
    25    18    19   ar
    26    20    21   ar
    27     7     8   ar
    28     9    11    2
    29    16    17    1
    30    12    13    1
@<TRIPOS>MOLECULE
MolPort-035-706-976 CSSS03437789231 MCULE-8811636795 PubChem-91938301
 28 30 0 0 0
SMALL
GASTEIGER

@<TRIPOS>ATOM
      1 C          14.9004   38.5853   10.5641 C.3     1  UNL1        0.2880
      2 C          14.9767   38.6100   12.0841 C.3     1  UNL1        0.0650
      3 C          13.5856   40.2862    9.2572 C.ar    1  UNL1        0.1542
      4 C          12.3287   40.7820    8.8986 C.ar    1  UNL1        0.0529
      5 C          12.2145   41.8251    7.9727 C.ar    1  UNL1        0.0537
      6 C          13.3772   42.3719    7.4077 C.ar    1  UNL1        0.0162
      7 C          14.6357   41.8812    7.7663 C.ar    1  UNL1        0.0190
      8 C          14.7381   40.8386    8.6900 C.ar    1  UNL1        0.0850
      9 C          16.1327   39.2639   10.0000 C.2     1  UNL1        0.2732
     10 O          13.6808   39.2433   10.1849 O.3     1  UNL1       -0.4618
     11 O          17.2814   38.8637   10.3308 O.2     1  UNL1       -0.2704
     12 N          16.0152   40.3417    9.0713 N.am    1  UNL1       -0.2783
     13 H          16.8280   40.7459    8.6901 H       1  UNL1        0.1551
     14 C           9.6853   42.0492    8.3401 C.2     1  UNL1        0.2555
     15 O           9.6777   41.3412    9.3826 O.2     1  UNL1       -0.2693
     16 N          10.9064   42.3028    7.6306 N.am    1  UNL1       -0.2799
     17 H          10.8391   42.8638    6.8244 H       1  UNL1        0.1552
     18 C           8.4284   42.6220    7.8450 C.ar    1  UNL1        0.0828
     19 C           7.9171   42.4512    6.5625 C.ar    1  UNL1        0.0112
     20 C           6.6970   43.1137    6.3672 C.ar    1  UNL1        0.0028
     21 C           6.2701   43.7936    7.4987 C.ar    1  UNL1        0.0078
     22 C           5.0171   44.5861    7.5986 C.3     1  UNL1        0.0382
     23 S           7.3805   43.5877    8.7401 S.2     1  UNL1       -0.0867
     24 C          14.8548   37.1633   10.0745 C.2     1  UNL1        0.3623
     25 O          15.3327   36.8639    8.9443 O.2     1  UNL1       -0.2457
     26 O          14.2235   36.1892   10.8514 O.3     1  UNL1       -0.4458
     27 C          11.8491   36.1939   10.5395 C.3     1  UNL1        0.0513
     28 C          13.1377   35.4209   10.3563 C.3     1  UNL1        0.2087
@<TRIPOS>BOND
     1    27    28    1
     2    28    26    1
     3    24    26    1
     4     1    24    1
     5     1     2    1
     6     1    10    1
     7     1     9    1
     8     3    10    1
     9     4     5   ar
    10     5    16    1
    11    14    18    1
    12    18    23   ar
    13    19    20   ar
    14    21    23   ar
    15    22    21    1
    16     6     7   ar
    17     8    12    1
    18     8     3   ar
    19    16    14   am
    20    12     9   am
    21    24    25    2
    22     3     4   ar
    23     5     6   ar
    24    14    15    2
    25    18    19   ar
    26    20    21   ar
    27     7     8   ar
    28     9    11    2
    29    16    17    1
    30    12    13    1
@<TRIPOS>MOLECULE
MolPort-035-706-976 CSSS03437789231 MCULE-8811636795 PubChem-91938301
 28 30 0 0 0
SMALL
GASTEIGER

@<TRIPOS>ATOM
      1 C           6.4891   42.8458    7.8028 C.3     1  UNL1        0.2880
      2 C           6.2173   43.2289    6.3551 C.3     1  UNL1        0.0650
      3 C           8.8208   42.5315    8.6941 C.ar    1  UNL1        0.1542
      4 C           9.9837   41.7556    8.7047 C.ar    1  UNL1        0.0529
      5 C          11.0483   42.0832    9.5518 C.ar    1  UNL1        0.0537
      6 C          10.9383   43.2028   10.3912 C.ar    1  UNL1        0.0162
      7 C           9.7788   43.9829   10.3810 C.ar    1  UNL1        0.0190
      8 C           8.7214   43.6458    9.5330 C.ar    1  UNL1        0.0850
      9 C           6.4475   44.0969    8.6575 C.2     1  UNL1        0.2732
     10 O           7.7666   42.1893    7.8404 O.3     1  UNL1       -0.4618
     11 O           5.4274   44.8373    8.6439 O.2     1  UNL1       -0.2704
     12 N           7.5427   44.4416    9.5058 N.am    1  UNL1       -0.2783
     13 H           7.4814   45.2397   10.0790 H       1  UNL1        0.1551
     14 C          12.2983   39.8630    9.8522 C.2     1  UNL1        0.2555
     15 O          11.2694   39.2203   10.1938 O.2     1  UNL1       -0.2693
     16 N          12.2222   41.2599    9.5333 N.am    1  UNL1       -0.2799
     17 H          13.0644   41.6992    9.2747 H       1  UNL1        0.1552
     18 C          13.5914   39.1735    9.7797 C.ar    1  UNL1        0.0828
     19 C          14.8095   39.7035   10.1928 C.ar    1  UNL1        0.0112
     20 C          15.8821   38.8204   10.0056 C.ar    1  UNL1        0.0028
     21 C          15.4895   37.6119    9.4488 C.ar    1  UNL1        0.0078
     22 C          16.3987   36.4796    9.1336 C.3     1  UNL1        0.0382
     23 S          13.8323   37.6183    9.1839 S.2     1  UNL1       -0.0867
     24 C           5.4375   41.8848    8.2868 C.2     1  UNL1        0.3623
     25 O           5.4418   40.6850    7.8919 O.2     1  UNL1       -0.2457
     26 O           4.4201   42.3452    9.1258 O.3     1  UNL1       -0.4458
     27 C           3.9891   40.5437   10.6437 C.3     1  UNL1        0.0513
     28 C           4.3686   42.0023   10.5021 C.3     1  UNL1        0.2087
@<TRIPOS>BOND
     1    27    28    1
     2    28    26    1
     3    24    26    1
     4     1    24    1
     5     1     2    1
     6     1    10    1
     7     1     9    1
     8     3    10    1
     9     4     5   ar
    10     5    16    1
    11    14    18    1
    12    18    23   ar
    13    19    20   ar
    14    21    23   ar
    15    22    21    1
    16     6     7   ar
    17     8    12    1
    18     8     3   ar
    19    16    14   am
    20    12     9   am
    21    24    25    2
    22     3     4   ar
    23     5     6   ar
    24    14    15    2
    25    18    19   ar
    26    20    21   ar
    27     7     8   ar
    28     9    11    2
    29    16    17    1
    30    12    13    1
@<TRIPOS>MOLECULE
MolPort-035-706-976 CSSS03437789231 MCULE-8811636795 PubChem-91938301
 28 30 0 0 0
SMALL
GASTEIGER

@<TRIPOS>ATOM
      1 C          14.5210   38.6408   10.6064 C.3     1  UNL1        0.2880
      2 C          15.0526   38.7008   12.0314 C.3     1  UNL1        0.0650
      3 C          12.9181   40.3538    9.6973 C.ar    1  UNL1        0.1542
      4 C          11.6249   40.8845    9.7162 C.ar    1  UNL1        0.0529
      5 C          11.2641   41.9074    8.8321 C.ar    1  UNL1        0.0537
      6 C          12.2163   42.3987    7.9254 C.ar    1  UNL1        0.0162
      7 C          13.5110   41.8731    7.9058 C.ar    1  UNL1        0.0190
      8 C          13.8600   40.8510    8.7913 C.ar    1  UNL1        0.0850
      9 C          15.5431   39.2613    9.6749 C.2     1  UNL1        0.2732
     10 O          13.2614   39.3316   10.5888 O.3     1  UNL1       -0.4618
     11 O          16.7272   38.8292    9.6588 O.2     1  UNL1       -0.2704
     12 N          15.1792   40.3190    8.7880 N.am    1  UNL1       -0.2783
     13 H          15.8495   40.6847    8.1664 H       1  UNL1        0.1551
     14 C           8.8734   42.1748    7.9404 C.2     1  UNL1        0.2555
     15 O           9.0641   41.4387    6.9355 O.2     1  UNL1       -0.2693
     16 N           9.9267   42.4223    8.8828 N.am    1  UNL1       -0.2799
     17 H           9.7083   43.0070    9.6442 H       1  UNL1        0.1552
     18 C           7.5565   42.7872    8.1497 C.ar    1  UNL1        0.0828
     19 C           7.2316   44.1107    7.8701 C.ar    1  UNL1        0.0112
     20 C           5.8977   44.4215    8.1694 C.ar    1  UNL1        0.0028
     21 C           5.1970   43.3380    8.6790 C.ar    1  UNL1        0.0078
     22 C           3.7685   43.3587    9.0877 C.3     1  UNL1        0.0382
     23 S           6.2037   41.9980    8.7651 S.2     1  UNL1       -0.0867
     24 C          14.2928   37.2095   10.2023 C.2     1  UNL1        0.3623
     25 O          15.0437   36.2957   10.6456 O.2     1  UNL1       -0.2457
     26 O          13.2845   36.9074    9.2842 O.3     1  UNL1       -0.4458
     27 C          11.7579   35.8119   10.7690 C.3     1  UNL1        0.0513
     28 C          11.9191   36.8349    9.6648 C.3     1  UNL1        0.2087
@<TRIPOS>BOND
     1    27    28    1
     2    28    26    1
     3    24    26    1
     4     1    24    1
     5     1     2    1
     6     1    10    1
     7     1     9    1
     8     3    10    1
     9     4     5   ar
    10     5    16    1
    11    14    18    1
    12    18    23   ar
    13    19    20   ar
    14    21    23   ar
    15    22    21    1
    16     6     7   ar
    17     8    12    1
    18     8     3   ar
    19    16    14   am
    20    12     9   am
    21    24    25    2
    22     3     4   ar
    23     5     6   ar
    24    14    15    2
    25    18    19   ar
    26    20    21   ar
    27     7     8   ar
    28     9    11    2
    29    16    17    1
    30    12    13    1
