@<TRIPOS>MOLECULE
MolPort-002-854-086 CSSS00138418082 MCULE-7243128000
 25 27 0 0 0
SMALL
GASTEIGER

@<TRIPOS>ATOM
      1 C           9.6676   41.7245   10.7297 C.ar    1  UNL1        0.2420
      2 C          11.4140   40.6285   11.0064 C.ar    1  UNL1        0.2554
      3 C          13.5338   39.6805   10.7270 C.ar    1  UNL1        0.1034
      4 C          13.6662   40.3389    9.4887 C.ar    1  UNL1        0.0391
      5 C          12.6112   41.1509    9.0334 C.ar    1  UNL1        0.1048
      6 N          10.4267   41.9645    9.6334 N.ar    1  UNL1       -0.1271
      7 N          11.5219   41.2595    9.8358 N.ar    1  UNL1       -0.1944
      8 N          10.2509   40.8848   11.6282 N.ar    1  UNL1       -0.1757
      9 N          12.4035   39.8319   11.4777 N.ar    1  UNL1       -0.2083
     10 C          12.6877   41.9185    7.7400 C.3     1  UNL1        0.2058
     11 C          11.4738   41.7465    6.8347 C.3     1  UNL1        0.0540
     12 O          13.9173   41.6848    7.0477 O.3     1  UNL1       -0.4732
     13 C          15.0850   42.4515    7.1782 C.ar    1  UNL1        0.1391
     14 C          16.0681   42.0269    8.0787 C.ar    1  UNL1        0.0392
     15 C          17.2466   42.7618    8.2393 C.ar    1  UNL1        0.0327
     16 C          17.4485   43.9294    7.4988 C.ar    1  UNL1        0.1403
     17 C          16.4719   44.3628    6.5983 C.ar    1  UNL1        0.0327
     18 C          15.2944   43.6273    6.4388 C.ar    1  UNL1        0.0392
     19 F          18.5901   44.6414    7.6541 F       1  UNL1       -0.2042
     20 N           8.3738   42.3118   10.9078 N.pl3   1  UNL1       -0.2618
     21 H           8.3309   43.1678   11.3922 H       1  UNL1        0.1567
     22 C           7.1369   41.7604   10.4418 C.2     1  UNL1        0.2080
     23 N           6.0431   41.8791   11.1195 N.2     1  UNL1       -0.0644
     24 C           4.2334   40.2957   11.3553 C.3     1  UNL1        0.2885
     25 O           4.8748   41.3364   10.6412 O.2     1  UNL1       -0.3720
@<TRIPOS>BOND
     1    24    25    1
     2    22    20    1
     3     1     8   ar
     4     2     9   ar
     5     3     4   ar
     6     5     7   ar
     7    10     5    1
     8    10    11    1
     9    10    12    1
    10    13    12    1
    11    14    15   ar
    12    16    19    1
    13    16    17   ar
    14    18    13   ar
    15    25    23    1
    16    20     1    1
    17     7     6   ar
    18     7     2   ar
    19    22    23    2
    20     1     6   ar
    21     2     8   ar
    22     3     9   ar
    23     4     5   ar
    24    13    14   ar
    25    15    16   ar
    26    17    18   ar
    27    20    21    1
@<TRIPOS>MOLECULE
MolPort-002-854-086 CSSS00138418082 MCULE-7243128000
 25 27 0 0 0
SMALL
GASTEIGER

@<TRIPOS>ATOM
      1 C          12.5173   42.0623    7.2214 C.ar    1  UNL1        0.2420
      2 C          12.6852   40.9785    8.9892 C.ar    1  UNL1        0.2554
      3 C          12.2791   40.0523   11.0981 C.ar    1  UNL1        0.1034
      4 C          11.0727   40.7746   11.1842 C.ar    1  UNL1        0.0391
      5 C          10.7064   41.6172   10.1186 C.ar    1  UNL1        0.1048
      6 N          11.4125   42.3684    7.9434 N.ar    1  UNL1       -0.1271
      7 N          11.5462   41.6705    9.0537 N.ar    1  UNL1       -0.1944
      8 N          13.3530   41.1851    7.8419 N.ar    1  UNL1       -0.1757
      9 N          13.0780   40.1618    9.9964 N.ar    1  UNL1       -0.2083
     10 C           9.4165   42.3944   10.1147 C.3     1  UNL1        0.2058
     11 C           9.5672   43.8636   10.4908 C.3     1  UNL1        0.0540
     12 O           8.3937   41.7431   10.8734 O.3     1  UNL1       -0.4732
     13 C           7.0702   41.5419   10.4537 C.ar    1  UNL1        0.1391
     14 C           6.8042   41.4834    9.0813 C.ar    1  UNL1        0.0392
     15 C           5.4992   41.2845    8.6205 C.ar    1  UNL1        0.0327
     16 C           4.4499   41.1436    9.5325 C.ar    1  UNL1        0.1403
     17 C           4.7051   41.2023   10.9050 C.ar    1  UNL1        0.0327
     18 C           6.0099   41.4013   11.3642 C.ar    1  UNL1        0.0392
     19 F           3.1858   40.9508    9.0864 F       1  UNL1       -0.2042
     20 N          12.7633   42.6201    5.9257 N.pl3   1  UNL1       -0.2618
     21 H          12.0638   42.4992    5.2435 H       1  UNL1        0.1567
     22 C          13.9396   43.3388    5.5373 C.2     1  UNL1        0.2080
     23 N          14.2796   44.4449    6.1123 N.2     1  UNL1       -0.0644
     24 C          16.6736   44.7417    6.2477 C.3     1  UNL1        0.2885
     25 O          15.4151   45.1077    5.7127 O.2     1  UNL1       -0.3720
@<TRIPOS>BOND
     1    24    25    1
     2    22    20    1
     3     1     8   ar
     4     2     9   ar
     5     3     4   ar
     6     5     7   ar
     7    10     5    1
     8    10    11    1
     9    10    12    1
    10    13    12    1
    11    14    15   ar
    12    16    19    1
    13    16    17   ar
    14    18    13   ar
    15    25    23    1
    16    20     1    1
    17     7     6   ar
    18     7     2   ar
    19    22    23    2
    20     1     6   ar
    21     2     8   ar
    22     3     9   ar
    23     4     5   ar
    24    13    14   ar
    25    15    16   ar
    26    17    18   ar
    27    20    21    1
@<TRIPOS>MOLECULE
MolPort-002-854-086 CSSS00138418082 MCULE-7243128000
 25 27 0 0 0
SMALL
GASTEIGER

@<TRIPOS>ATOM
      1 C          16.6910   41.3025    8.8537 C.ar    1  UNL1        0.2420
      2 C          15.8572   42.5796    7.4389 C.ar    1  UNL1        0.2554
      3 C          14.3656   43.6634    6.0000 C.ar    1  UNL1        0.1034
      4 C          13.3320   42.8047    6.4228 C.ar    1  UNL1        0.0391
      5 C          13.6190   41.8140    7.3798 C.ar    1  UNL1        0.1048
      6 N          15.3911   40.9345    8.7510 N.ar    1  UNL1       -0.1271
      7 N          14.8906   41.7572    7.8509 N.ar    1  UNL1       -0.1944
      8 N          17.0333   42.3407    8.0428 N.ar    1  UNL1       -0.1757
      9 N          15.6245   43.5420    6.5141 N.ar    1  UNL1       -0.2083
     10 C          12.5639   40.8809    7.9126 C.3     1  UNL1        0.2058
     11 C          11.9957   39.9181    6.8768 C.3     1  UNL1        0.0540
     12 O          11.5377   41.5790    8.6237 O.3     1  UNL1       -0.4732
     13 C          10.1742   41.5819    8.2934 C.ar    1  UNL1        0.1391
     14 C           9.2457   41.2258    9.2777 C.ar    1  UNL1        0.0392
     15 C           7.8775   41.2155    8.9904 C.ar    1  UNL1        0.0327
     16 C           7.4291   41.5614    7.7129 C.ar    1  UNL1        0.1403
     17 C           8.3485   41.9167    6.7226 C.ar    1  UNL1        0.0327
     18 C           9.7159   41.9266    7.0112 C.ar    1  UNL1        0.0392
     19 F           6.1037   41.5516    7.4344 F       1  UNL1       -0.2042
     20 N          17.6037   40.6472    9.7414 N.pl3   1  UNL1       -0.2618
     21 H          18.4776   41.0767    9.8860 H       1  UNL1        0.1567
     22 C          17.3540   39.4203   10.4370 C.2     1  UNL1        0.2080
     23 N          16.3193   39.2694   11.1962 N.2     1  UNL1       -0.0644
     24 C          14.8688   37.4120   11.7291 C.3     1  UNL1        0.2885
     25 O          16.1124   38.0779   11.8487 O.2     1  UNL1       -0.3720
@<TRIPOS>BOND
     1    24    25    1
     2    22    20    1
     3     1     8   ar
     4     2     9   ar
     5     3     4   ar
     6     5     7   ar
     7    10     5    1
     8    10    11    1
     9    10    12    1
    10    13    12    1
    11    14    15   ar
    12    16    19    1
    13    16    17   ar
    14    18    13   ar
    15    25    23    1
    16    20     1    1
    17     7     6   ar
    18     7     2   ar
    19    22    23    2
    20     1     6   ar
    21     2     8   ar
    22     3     9   ar
    23     4     5   ar
    24    13    14   ar
    25    15    16   ar
    26    17    18   ar
    27    20    21    1
@<TRIPOS>MOLECULE
MolPort-002-854-086 CSSS00138418082 MCULE-7243128000
 25 27 0 0 0
SMALL
GASTEIGER

@<TRIPOS>ATOM
      1 C          16.9905   41.7288    8.5681 C.ar    1  UNL1        0.2420
      2 C          16.5110   43.2207    7.1999 C.ar    1  UNL1        0.2554
      3 C          15.3540   44.6442    5.7490 C.ar    1  UNL1        0.1034
      4 C          14.1544   43.9639    6.0363 C.ar    1  UNL1        0.0391
      5 C          14.1845   42.8807    6.9338 C.ar    1  UNL1        0.1048
      6 N          15.6583   41.6107    8.3513 N.ar    1  UNL1       -0.1271
      7 N          15.3845   42.5644    7.4835 N.ar    1  UNL1       -0.1944
      8 N          17.5746   42.7352    7.8618 N.ar    1  UNL1       -0.1757
      9 N          16.5266   44.2644    6.3359 N.ar    1  UNL1       -0.2083
     10 C          12.9419   42.1243    7.3234 C.3     1  UNL1        0.2058
     11 C          12.1885   41.5073    6.1511 C.3     1  UNL1        0.0540
     12 O          12.0865   42.8957    8.1716 O.3     1  UNL1       -0.4732
     13 C          11.4028   42.4119    9.2971 C.ar    1  UNL1        0.1391
     14 C          11.7908   41.1817    9.8391 C.ar    1  UNL1        0.0392
     15 C          11.1357   40.6633   10.9602 C.ar    1  UNL1        0.0327
     16 C          10.0853   41.3741   11.5466 C.ar    1  UNL1        0.1403
     17 C           9.6892   42.6027   11.0117 C.ar    1  UNL1        0.0327
     18 C          10.3448   43.1196    9.8910 C.ar    1  UNL1        0.0392
     19 F           9.4507   40.8723   12.6328 F       1  UNL1       -0.2042
     20 N          17.6993   40.8651    9.4637 N.pl3   1  UNL1       -0.2618
     21 H          18.6674   41.0148    9.5615 H       1  UNL1        0.1567
     22 C          17.1204   39.8020   10.2293 C.2     1  UNL1        0.2080
     23 N          17.2185   38.5680    9.8589 N.2     1  UNL1       -0.0644
     24 C          15.6146   37.8865   11.5325 C.3     1  UNL1        0.2885
     25 O          16.6497   37.5742   10.6185 O.2     1  UNL1       -0.3720
@<TRIPOS>BOND
     1    24    25    1
     2    22    20    1
     3     1     8   ar
     4     2     9   ar
     5     3     4   ar
     6     5     7   ar
     7    10     5    1
     8    10    11    1
     9    10    12    1
    10    13    12    1
    11    14    15   ar
    12    16    19    1
    13    16    17   ar
    14    18    13   ar
    15    25    23    1
    16    20     1    1
    17     7     6   ar
    18     7     2   ar
    19    22    23    2
    20     1     6   ar
    21     2     8   ar
    22     3     9   ar
    23     4     5   ar
    24    13    14   ar
    25    15    16   ar
    26    17    18   ar
    27    20    21    1
@<TRIPOS>MOLECULE
MolPort-002-854-086 CSSS00138418082 MCULE-7243128000
 25 27 0 0 0
SMALL
GASTEIGER

@<TRIPOS>ATOM
      1 C          16.9768   41.9036    8.6276 C.ar    1  UNL1        0.2420
      2 C          16.2878   43.4074    7.3660 C.ar    1  UNL1        0.2554
      3 C          14.9717   44.6977    5.9262 C.ar    1  UNL1        0.1034
      4 C          13.9547   43.7246    5.9819 C.ar    1  UNL1        0.0391
      5 C          14.1586   42.5710    6.7612 C.ar    1  UNL1        0.1048
      6 N          15.7453   41.5069    8.2255 N.ar    1  UNL1       -0.1271
      7 N          15.3356   42.4749    7.4302 N.ar    1  UNL1       -0.1944
      8 N          17.3638   43.1017    8.1103 N.ar    1  UNL1       -0.1757
      9 N          16.1343   44.5292    6.6218 N.ar    1  UNL1       -0.2083
     10 C          13.1083   41.5013    6.9045 C.3     1  UNL1        0.2058
     11 C          11.9492   41.6233    5.9225 C.3     1  UNL1        0.0540
     12 O          12.6610   41.3641    8.2562 O.3     1  UNL1       -0.4732
     13 C          12.7550   40.1989    9.0319 C.ar    1  UNL1        0.1391
     14 C          13.2259   40.3046   10.3453 C.ar    1  UNL1        0.0392
     15 C          13.3352   39.1682   11.1522 C.ar    1  UNL1        0.0327
     16 C          12.9741   37.9159   10.6484 C.ar    1  UNL1        0.1403
     17 C          12.5044   37.7996    9.3376 C.ar    1  UNL1        0.0327
     18 C          12.3957   38.9364    8.5320 C.ar    1  UNL1        0.0392
     19 F          13.0797   36.8148   11.4300 F       1  UNL1       -0.2042
     20 N          17.7803   41.1202    9.5171 N.pl3   1  UNL1       -0.2618
     21 H          18.6558   41.4890    9.7756 H       1  UNL1        0.1567
     22 C          17.4194   39.8462   10.0629 C.2     1  UNL1        0.2080
     23 N          17.8735   38.7426    9.5673 N.2     1  UNL1       -0.0644
     24 C          16.3350   36.8821    9.6640 C.3     1  UNL1        0.2885
     25 O          17.5049   37.5383   10.1168 O.2     1  UNL1       -0.3720
@<TRIPOS>BOND
     1    24    25    1
     2    22    20    1
     3     1     8   ar
     4     2     9   ar
     5     3     4   ar
     6     5     7   ar
     7    10     5    1
     8    10    11    1
     9    10    12    1
    10    13    12    1
    11    14    15   ar
    12    16    19    1
    13    16    17   ar
    14    18    13   ar
    15    25    23    1
    16    20     1    1
    17     7     6   ar
    18     7     2   ar
    19    22    23    2
    20     1     6   ar
    21     2     8   ar
    22     3     9   ar
    23     4     5   ar
    24    13    14   ar
    25    15    16   ar
    26    17    18   ar
    27    20    21    1
@<TRIPOS>MOLECULE
MolPort-002-854-086 CSSS00138418082 MCULE-7243128000
 25 27 0 0 0
SMALL
GASTEIGER

@<TRIPOS>ATOM
      1 C          11.3852   41.8874    6.2249 C.ar    1  UNL1        0.2420
      2 C           9.3299   41.6444    6.4362 C.ar    1  UNL1        0.2554
      3 C           7.1931   41.2941    7.3201 C.ar    1  UNL1        0.1034
      4 C           7.7497   41.1306    8.6038 C.ar    1  UNL1        0.0391
      5 C           9.1447   41.2289    8.7583 C.ar    1  UNL1        0.1048
      6 N          11.1802   41.6417    7.5415 N.ar    1  UNL1       -0.1271
      7 N           9.8746   41.4920    7.6446 N.ar    1  UNL1       -0.1944
      8 N          10.2432   41.8999    5.4844 N.ar    1  UNL1       -0.1757
      9 N           7.9922   41.5504    6.2432 N.ar    1  UNL1       -0.2083
     10 C           9.8160   41.1043   10.1006 C.3     1  UNL1        0.2058
     11 C           9.4710   42.2187   11.0814 C.3     1  UNL1        0.0540
     12 O          11.2275   40.9066    9.9799 O.3     1  UNL1       -0.4732
     13 C          11.9177   39.7317   10.3138 C.ar    1  UNL1        0.1391
     14 C          11.4120   38.5069    9.8645 C.ar    1  UNL1        0.0392
     15 C          12.0690   37.3125   10.1751 C.ar    1  UNL1        0.0327
     16 C          13.2383   37.3364   10.9398 C.ar    1  UNL1        0.1403
     17 C          13.7503   38.5543   11.3946 C.ar    1  UNL1        0.0327
     18 C          13.0926   39.7475   11.0835 C.ar    1  UNL1        0.0392
     19 F          13.8750   36.1795   11.2405 F       1  UNL1       -0.2042
     20 N          12.6915   42.1123    5.6830 N.pl3   1  UNL1       -0.2618
     21 H          12.9876   41.5142    4.9593 H       1  UNL1        0.1567
     22 C          13.6040   43.1328    6.1038 C.2     1  UNL1        0.2080
     23 N          13.6946   44.2609    5.4803 N.2     1  UNL1       -0.0644
     24 C          15.9036   44.8487    6.2631 C.3     1  UNL1        0.2885
     25 O          14.5823   45.2167    5.9124 O.2     1  UNL1       -0.3720
@<TRIPOS>BOND
     1    24    25    1
     2    22    20    1
     3     1     8   ar
     4     2     9   ar
     5     3     4   ar
     6     5     7   ar
     7    10     5    1
     8    10    11    1
     9    10    12    1
    10    13    12    1
    11    14    15   ar
    12    16    19    1
    13    16    17   ar
    14    18    13   ar
    15    25    23    1
    16    20     1    1
    17     7     6   ar
    18     7     2   ar
    19    22    23    2
    20     1     6   ar
    21     2     8   ar
    22     3     9   ar
    23     4     5   ar
    24    13    14   ar
    25    15    16   ar
    26    17    18   ar
    27    20    21    1
@<TRIPOS>MOLECULE
MolPort-002-854-086 CSSS00138418082 MCULE-7243128000
 25 27 0 0 0
SMALL
GASTEIGER

@<TRIPOS>ATOM
      1 C          12.2185   41.7943    6.2215 C.ar    1  UNL1        0.2420
      2 C          10.8931   40.1924    6.2925 C.ar    1  UNL1        0.2554
      3 C           9.4977   38.4686    7.0350 C.ar    1  UNL1        0.1034
      4 C           9.8435   38.7617    8.3688 C.ar    1  UNL1        0.0391
      5 C          10.7510   39.8065    8.6227 C.ar    1  UNL1        0.1048
      6 N          12.0735   41.4986    7.5358 N.ar    1  UNL1       -0.1271
      7 N          11.2324   40.4838    7.5496 N.ar    1  UNL1       -0.1944
      8 N          11.4898   40.9949    5.3953 N.ar    1  UNL1       -0.1757
      9 N          10.0285   39.1898    6.0045 N.ar    1  UNL1       -0.2083
     10 C          11.1442   40.2084   10.0198 C.3     1  UNL1        0.2058
     11 C          10.1177   41.0781   10.7358 C.3     1  UNL1        0.0540
     12 O          12.4585   40.7707   10.0679 O.3     1  UNL1       -0.4732
     13 C          13.6307   40.0763   10.4031 C.ar    1  UNL1        0.1391
     14 C          13.6333   39.2837   11.5561 C.ar    1  UNL1        0.0392
     15 C          14.7805   38.5755   11.9263 C.ar    1  UNL1        0.0327
     16 C          15.9351   38.6569   11.1434 C.ar    1  UNL1        0.1403
     17 C          15.9430   39.4471    9.9911 C.ar    1  UNL1        0.0327
     18 C          14.7957   40.1546    9.6223 C.ar    1  UNL1        0.0392
     19 F          17.0465   37.9707   11.5016 F       1  UNL1       -0.2042
     20 N          13.0643   42.8558    5.7650 N.pl3   1  UNL1       -0.2618
     21 H          13.0156   43.0913    4.8103 H       1  UNL1        0.1567
     22 C          13.9751   43.6042    6.5784 C.2     1  UNL1        0.2080
     23 N          15.2525   43.5522    6.3904 N.2     1  UNL1       -0.0644
     24 C          17.4849   44.0081    7.1943 C.3     1  UNL1        0.2885
     25 O          16.0963   44.2838    7.1910 O.2     1  UNL1       -0.3720
@<TRIPOS>BOND
     1    24    25    1
     2    22    20    1
     3     1     8   ar
     4     2     9   ar
     5     3     4   ar
     6     5     7   ar
     7    10     5    1
     8    10    11    1
     9    10    12    1
    10    13    12    1
    11    14    15   ar
    12    16    19    1
    13    16    17   ar
    14    18    13   ar
    15    25    23    1
    16    20     1    1
    17     7     6   ar
    18     7     2   ar
    19    22    23    2
    20     1     6   ar
    21     2     8   ar
    22     3     9   ar
    23     4     5   ar
    24    13    14   ar
    25    15    16   ar
    26    17    18   ar
    27    20    21    1
@<TRIPOS>MOLECULE
MolPort-002-854-086 CSSS00138418082 MCULE-7243128000
 25 27 0 0 0
SMALL
GASTEIGER

@<TRIPOS>ATOM
      1 C          14.7606   37.7920   11.0060 C.ar    1  UNL1        0.2420
      2 C          12.8408   37.3757   10.3212 C.ar    1  UNL1        0.2554
      3 C          10.7276   37.5436    9.3333 C.ar    1  UNL1        0.1034
      4 C          10.9949   38.8824    8.9864 C.ar    1  UNL1        0.0391
      5 C          12.2342   39.4440    9.3449 C.ar    1  UNL1        0.1048
      6 N          14.3252   38.9350   10.4232 N.ar    1  UNL1       -0.1271
      7 N          13.1112   38.6424   10.0011 N.ar    1  UNL1       -0.1944
      8 N          13.8558   36.7758   10.9654 N.ar    1  UNL1       -0.1757
      9 N          11.6572   36.7993   10.0009 N.ar    1  UNL1       -0.2083
     10 C          12.6137   40.8548    8.9795 C.3     1  UNL1        0.2058
     11 C          11.4661   41.8545    9.0585 C.3     1  UNL1        0.0540
     12 O          13.3034   40.9193    7.7281 O.3     1  UNL1       -0.4732
     13 C          14.2525   41.8882    7.3692 C.ar    1  UNL1        0.1391
     14 C          13.9321   42.7959    6.3536 C.ar    1  UNL1        0.0392
     15 C          14.8493   43.7770    5.9652 C.ar    1  UNL1        0.0327
     16 C          16.0960   43.8555    6.5916 C.ar    1  UNL1        0.1403
     17 C          16.4260   42.9526    7.6056 C.ar    1  UNL1        0.0327
     18 C          15.5083   41.9723    7.9927 C.ar    1  UNL1        0.0392
     19 F          16.9845   44.8060    6.2156 F       1  UNL1       -0.2042
     20 N          16.0579   37.6835   11.6025 N.pl3   1  UNL1       -0.2618
     21 H          16.0955   37.4616   12.5609 H       1  UNL1        0.1567
     22 C          17.3054   37.8702   10.9241 C.2     1  UNL1        0.2080
     23 N          17.4367   37.6175    9.6637 N.2     1  UNL1       -0.0644
     24 C          19.6272   38.6368    9.6472 C.3     1  UNL1        0.2885
     25 O          18.6495   37.8079    9.0463 O.2     1  UNL1       -0.3720
@<TRIPOS>BOND
     1    24    25    1
     2    22    20    1
     3     1     8   ar
     4     2     9   ar
     5     3     4   ar
     6     5     7   ar
     7    10     5    1
     8    10    11    1
     9    10    12    1
    10    13    12    1
    11    14    15   ar
    12    16    19    1
    13    16    17   ar
    14    18    13   ar
    15    25    23    1
    16    20     1    1
    17     7     6   ar
    18     7     2   ar
    19    22    23    2
    20     1     6   ar
    21     2     8   ar
    22     3     9   ar
    23     4     5   ar
    24    13    14   ar
    25    15    16   ar
    26    17    18   ar
    27    20    21    1
@<TRIPOS>MOLECULE
MolPort-002-854-086 CSSS00138418082 MCULE-7243128000
 25 27 0 0 0
SMALL
GASTEIGER

@<TRIPOS>ATOM
      1 C          12.2217   37.6341   10.2265 C.ar    1  UNL1        0.2420
      2 C          10.6762   38.0220    8.8890 C.ar    1  UNL1        0.2554
      3 C           9.2610   39.0477    7.3349 C.ar    1  UNL1        0.1034
      4 C          10.0476   40.2151    7.3874 C.ar    1  UNL1        0.0391
      5 C          11.1693   40.2424    8.2364 C.ar    1  UNL1        0.1048
      6 N          12.4232   38.9021    9.7938 N.ar    1  UNL1       -0.1271
      7 N          11.4326   39.1194    8.9518 N.ar    1  UNL1       -0.1944
      8 N          11.1279   37.0351    9.6809 N.ar    1  UNL1       -0.1757
      9 N           9.5840   37.9571    8.0899 N.ar    1  UNL1       -0.2083
     10 C          12.0832   41.4362    8.3235 C.3     1  UNL1        0.2058
     11 C          11.4786   42.6396    9.0368 C.3     1  UNL1        0.0540
     12 O          12.6380   41.7827    7.0514 O.3     1  UNL1       -0.4732
     13 C          13.8217   42.5079    6.8484 C.ar    1  UNL1        0.1391
     14 C          13.8183   43.5474    5.9118 C.ar    1  UNL1        0.0392
     15 C          14.9766   44.2949    5.6788 C.ar    1  UNL1        0.0327
     16 C          16.1485   44.0053    6.3827 C.ar    1  UNL1        0.1403
     17 C          16.1626   42.9681    7.3187 C.ar    1  UNL1        0.0327
     18 C          15.0041   42.2217    7.5506 C.ar    1  UNL1        0.0392
     19 F          17.2707   44.7294    6.1573 F       1  UNL1       -0.2042
     20 N          13.0925   37.0004   11.1702 N.pl3   1  UNL1       -0.2618
     21 H          12.6739   36.5707   11.9509 H       1  UNL1        0.1567
     22 C          14.5202   36.9380   11.0756 C.2     1  UNL1        0.2080
     23 N          15.2825   37.3661   12.0271 N.2     1  UNL1       -0.0644
     24 C          17.2566   37.5107   10.6415 C.3     1  UNL1        0.2885
     25 O          16.6488   37.2908   11.9010 O.2     1  UNL1       -0.3720
@<TRIPOS>BOND
     1    24    25    1
     2    22    20    1
     3     1     8   ar
     4     2     9   ar
     5     3     4   ar
     6     5     7   ar
     7    10     5    1
     8    10    11    1
     9    10    12    1
    10    13    12    1
    11    14    15   ar
    12    16    19    1
    13    16    17   ar
    14    18    13   ar
    15    25    23    1
    16    20     1    1
    17     7     6   ar
    18     7     2   ar
    19    22    23    2
    20     1     6   ar
    21     2     8   ar
    22     3     9   ar
    23     4     5   ar
    24    13    14   ar
    25    15    16   ar
    26    17    18   ar
    27    20    21    1
@<TRIPOS>MOLECULE
MolPort-002-854-086 CSSS00138418082 MCULE-7243128000
 25 27 0 0 0
SMALL
GASTEIGER

@<TRIPOS>ATOM
      1 C          16.0133   39.8264    9.9642 C.ar    1  UNL1        0.2420
      2 C          16.5837   41.4052    8.7354 C.ar    1  UNL1        0.2554
      3 C          16.5668   43.1778    7.2097 C.ar    1  UNL1        0.1034
      4 C          15.1835   42.9977    7.0141 C.ar    1  UNL1        0.0391
      5 C          14.5244   41.9727    7.7175 C.ar    1  UNL1        0.1048
      6 N          14.8830   40.2230    9.3312 N.ar    1  UNL1       -0.1271
      7 N          15.2738   41.2199    8.5624 N.ar    1  UNL1       -0.1944
      8 N          17.1165   40.5458    9.6201 N.ar    1  UNL1       -0.1757
      9 N          17.2574   42.3759    8.0723 N.ar    1  UNL1       -0.2083
     10 C          13.0420   41.7374    7.5943 C.3     1  UNL1        0.2058
     11 C          12.5286   41.7022    6.1598 C.3     1  UNL1        0.0540
     12 O          12.2856   42.6284    8.4189 O.3     1  UNL1       -0.4732
     13 C          11.4281   42.2450    9.4610 C.ar    1  UNL1        0.1391
     14 C          11.5715   40.9663   10.0105 C.ar    1  UNL1        0.0392
     15 C          10.7375   40.5444   11.0502 C.ar    1  UNL1        0.0327
     16 C           9.7519   41.4013   11.5470 C.ar    1  UNL1        0.1403
     17 C           9.5996   42.6796   11.0038 C.ar    1  UNL1        0.0327
     18 C          10.4339   43.1000    9.9644 C.ar    1  UNL1        0.0392
     19 F           8.9439   40.9929   12.5544 F       1  UNL1       -0.2042
     20 N          16.0244   38.7481   10.9063 N.pl3   1  UNL1       -0.2618
     21 H          16.6029   38.8469   11.6967 H       1  UNL1        0.1567
     22 C          15.2657   37.5382   10.7973 C.2     1  UNL1        0.2080
     23 N          15.5555   36.6322    9.9227 N.2     1  UNL1       -0.0644
     24 C          13.3933   35.5646    9.7726 C.3     1  UNL1        0.2885
     25 O          14.8047   35.4839    9.8466 O.2     1  UNL1       -0.3720
@<TRIPOS>BOND
     1    24    25    1
     2    22    20    1
     3     1     8   ar
     4     2     9   ar
     5     3     4   ar
     6     5     7   ar
     7    10     5    1
     8    10    11    1
     9    10    12    1
    10    13    12    1
    11    14    15   ar
    12    16    19    1
    13    16    17   ar
    14    18    13   ar
    15    25    23    1
    16    20     1    1
    17     7     6   ar
    18     7     2   ar
    19    22    23    2
    20     1     6   ar
    21     2     8   ar
    22     3     9   ar
    23     4     5   ar
    24    13    14   ar
    25    15    16   ar
    26    17    18   ar
    27    20    21    1
