@<TRIPOS>MOLECULE
MolPort-005-148-118 CSSS00159568032 MCULE-3943007993 PubChem-31192806
 25 26 0 0 0
SMALL
GASTEIGER

@<TRIPOS>ATOM
      1 C          11.9280   42.0450    7.0997 C.2     1  UNL1        0.3098
      2 C          10.1993   40.9582    5.6457 C.3     1  UNL1        0.1165
      3 O          12.3427   42.3589    8.2493 O.2     1  UNL1       -0.2522
      4 N          12.6464   42.4633    5.9306 N.am    1  UNL1       -0.2396
      5 N          10.7337   41.2612    6.9631 N.am    1  UNL1       -0.2617
      6 H          12.3141   42.1514    5.0579 H       1  UNL1        0.1592
      7 C          15.8046   43.9267    6.1793 C.ar    1  UNL1        0.1547
      8 C          15.0835   44.9903    5.6777 C.ar    1  UNL1        0.1253
      9 C          13.8088   43.2988    5.9342 C.ar    1  UNL1        0.2017
     10 N          13.8100   44.5841    5.5213 N.ar    1  UNL1       -0.2118
     11 N          15.0100   42.8541    6.3460 N.ar    1  UNL1       -0.3201
     12 H          15.2490   41.9618    6.6863 H       1  UNL1        0.1688
     13 C          17.2353   43.9385    6.4987 C.2     1  UNL1        0.3587
     14 O          18.0811   43.6609    5.6064 O.2     1  UNL1       -0.2432
     15 O          17.6511   44.2655    7.7911 O.3     1  UNL1       -0.4444
     16 C          17.6445   41.9923    8.5571 C.3     1  UNL1        0.0513
     17 C          17.3565   43.4366    8.9054 C.3     1  UNL1        0.2089
     18 C           9.9652   40.8476    8.1291 C.3     1  UNL1        0.1031
     19 C          10.4150   39.4738    8.5936 C.3     1  UNL1        0.0907
     20 C          11.4939   39.6054    9.6110 C.ar    1  UNL1        0.1822
     21 C          13.3311   39.5108   10.5784 C.ar    1  UNL1        0.2368
     22 C          14.7641   39.2686   10.8971 C.3     1  UNL1        0.0978
     23 O          12.4709   40.0401   11.4116 O.2     1  UNL1       -0.3373
     24 N          11.3058   40.1121   10.8448 N.ar    1  UNL1       -0.0606
     25 N          12.7655   39.2125    9.3954 N.ar    1  UNL1       -0.1948
@<TRIPOS>BOND
     1    16    17    1
     2    17    15    1
     3    13    15    1
     4    13     7    1
     5     8    10   ar
     6     9     4    1
     7     9    11   ar
     8     1     5   am
     9     2     5    1
    10    18     5    1
    11    18    19    1
    12    19    20    1
    13    20    25   ar
    14    21    23   ar
    15    22    21    1
    16     4     1   am
    17    24    23   ar
    18    11     7   ar
    19    13    14    2
    20     7     8   ar
    21     9    10   ar
    22     1     3    2
    23    20    24   ar
    24    21    25   ar
    25     4     6    1
    26    11    12    1
@<TRIPOS>MOLECULE
MolPort-005-148-118 CSSS00159568032 MCULE-3943007993 PubChem-31192806
 25 26 0 0 0
SMALL
GASTEIGER

@<TRIPOS>ATOM
      1 C          11.7978   42.1742    7.2436 C.2     1  UNL1        0.3098
      2 C          10.0602   40.9919    5.8772 C.3     1  UNL1        0.1165
      3 O          12.2078   42.5858    8.3636 O.2     1  UNL1       -0.2522
      4 N          12.5364   42.4662    6.0491 N.am    1  UNL1       -0.2396
      5 N          10.5881   41.4059    7.1668 N.am    1  UNL1       -0.2617
      6 H          12.2061   42.0810    5.2055 H       1  UNL1        0.1592
      7 C          15.7304   43.8675    6.1614 C.ar    1  UNL1        0.1547
      8 C          15.0220   44.9221    5.6241 C.ar    1  UNL1        0.1253
      9 C          13.7166   43.2743    5.9882 C.ar    1  UNL1        0.2017
     10 N          13.7368   44.5380    5.5138 N.ar    1  UNL1       -0.2118
     11 N          14.9165   42.8225    6.3962 N.ar    1  UNL1       -0.3201
     12 H          15.1434   41.9423    6.7742 H       1  UNL1        0.1688
     13 C          17.1677   43.8619    6.4503 C.2     1  UNL1        0.3587
     14 O          17.9895   43.5518    5.5464 O.2     1  UNL1       -0.2432
     15 O          17.6164   44.2086    7.7265 O.3     1  UNL1       -0.4444
     16 C          17.5961   41.9673    8.5810 C.3     1  UNL1        0.0513
     17 C          17.3061   43.4246    8.8686 C.3     1  UNL1        0.2089
     18 C           9.7995   41.1193    8.3572 C.3     1  UNL1        0.1031
     19 C           8.8247   42.2520    8.6259 C.3     1  UNL1        0.0907
     20 C           7.9448   41.9078    9.7764 C.ar    1  UNL1        0.1822
     21 C           6.2907   41.3917   10.9244 C.ar    1  UNL1        0.2368
     22 C           4.9183   41.0178   11.3608 C.3     1  UNL1        0.0978
     23 O           7.3023   41.5586   11.7388 O.2     1  UNL1       -0.3373
     24 N           8.3572   41.8880   11.0586 N.ar    1  UNL1       -0.0606
     25 N           6.6398   41.5966    9.6420 N.ar    1  UNL1       -0.1948
@<TRIPOS>BOND
     1    16    17    1
     2    17    15    1
     3    13    15    1
     4    13     7    1
     5     8    10   ar
     6     9     4    1
     7     9    11   ar
     8     1     5   am
     9     2     5    1
    10    18     5    1
    11    18    19    1
    12    19    20    1
    13    20    25   ar
    14    21    23   ar
    15    22    21    1
    16     4     1   am
    17    24    23   ar
    18    11     7   ar
    19    13    14    2
    20     7     8   ar
    21     9    10   ar
    22     1     3    2
    23    20    24   ar
    24    21    25   ar
    25     4     6    1
    26    11    12    1
@<TRIPOS>MOLECULE
MolPort-005-148-118 CSSS00159568032 MCULE-3943007993 PubChem-31192806
 25 26 0 0 0
SMALL
GASTEIGER

@<TRIPOS>ATOM
      1 C          10.1097   41.6915    7.3678 C.2     1  UNL1        0.3098
      2 C           8.5426   40.3746    5.9208 C.3     1  UNL1        0.1165
      3 O          10.3034   42.4290    8.3731 O.2     1  UNL1       -0.2522
      4 N          11.1913   41.3783    6.4792 N.am    1  UNL1       -0.2396
      5 N           8.8005   41.1602    7.1163 N.am    1  UNL1       -0.2617
      6 H          11.0046   40.7579    5.7379 H       1  UNL1        0.1592
      7 C          14.2077   43.1214    6.2783 C.ar    1  UNL1        0.1547
      8 C          14.5463   42.1574    7.2051 C.ar    1  UNL1        0.1253
      9 C          12.5210   41.8976    6.5864 C.ar    1  UNL1        0.2017
     10 N          13.4655   41.3793    7.3999 N.ar    1  UNL1       -0.2118
     11 N          12.9322   42.9665    5.8801 N.ar    1  UNL1       -0.3201
     12 H          12.4237   43.5040    5.2306 H       1  UNL1        0.1688
     13 C          15.0956   44.1749    5.7773 C.2     1  UNL1        0.3587
     14 O          14.9310   44.6363    4.6160 O.2     1  UNL1       -0.2432
     15 O          16.1148   44.6656    6.5962 O.3     1  UNL1       -0.4444
     16 C          17.8241   43.8170    8.0496 C.3     1  UNL1        0.0513
     17 C          17.4068   44.0776    6.6183 C.3     1  UNL1        0.2089
     18 C           7.6753   41.4849    7.9822 C.3     1  UNL1        0.1031
     19 C           7.0607   42.8103    7.5689 C.3     1  UNL1        0.0907
     20 C           5.8102   43.0566    8.3382 C.ar    1  UNL1        0.1822
     21 C           4.0973   42.7791    9.4825 C.ar    1  UNL1        0.2368
     22 C           3.0045   42.1727   10.2898 C.3     1  UNL1        0.0978
     23 O           4.1765   44.0528    9.1896 O.2     1  UNL1       -0.3373
     24 N           5.2341   44.2673    8.4688 N.ar    1  UNL1       -0.0606
     25 N           5.1248   42.0809    8.9675 N.ar    1  UNL1       -0.1948
@<TRIPOS>BOND
     1    16    17    1
     2    17    15    1
     3    13    15    1
     4    13     7    1
     5     8    10   ar
     6     9     4    1
     7     9    11   ar
     8     1     5   am
     9     2     5    1
    10    18     5    1
    11    18    19    1
    12    19    20    1
    13    20    25   ar
    14    21    23   ar
    15    22    21    1
    16     4     1   am
    17    24    23   ar
    18    11     7   ar
    19    13    14    2
    20     7     8   ar
    21     9    10   ar
    22     1     3    2
    23    20    24   ar
    24    21    25   ar
    25     4     6    1
    26    11    12    1
@<TRIPOS>MOLECULE
MolPort-005-148-118 CSSS00159568032 MCULE-3943007993 PubChem-31192806
 25 26 0 0 0
SMALL
GASTEIGER

@<TRIPOS>ATOM
      1 C          11.6418   41.6232    7.8795 C.2     1  UNL1        0.3098
      2 C          11.3422   39.1409    8.0601 C.3     1  UNL1        0.1165
      3 O          11.1801   42.7888    8.0213 O.2     1  UNL1       -0.2522
      4 N          12.9458   41.4234    7.3161 N.am    1  UNL1       -0.2396
      5 N          10.8586   40.4925    8.2891 N.am    1  UNL1       -0.2617
      6 H          13.2849   40.5002    7.2726 H       1  UNL1        0.1592
      7 C          15.5290   43.5553    6.3364 C.ar    1  UNL1        0.1547
      8 C          14.4418   44.2558    5.8568 C.ar    1  UNL1        0.1253
      9 C          13.7924   42.4621    6.8122 C.ar    1  UNL1        0.2017
     10 N          13.3352   43.5530    6.1615 N.ar    1  UNL1       -0.2118
     11 N          15.1310   42.4220    6.9421 N.ar    1  UNL1       -0.3201
     12 H          15.6840   41.7320    7.3748 H       1  UNL1        0.1688
     13 C          16.9310   43.9678    6.2198 C.2     1  UNL1        0.3587
     14 O          17.4871   43.9928    5.0891 O.2     1  UNL1       -0.2432
     15 O          17.6388   44.3379    7.3653 O.3     1  UNL1       -0.4444
     16 C          18.0500   42.2250    8.4237 C.3     1  UNL1        0.0513
     17 C          17.5091   43.6288    8.5883 C.3     1  UNL1        0.2089
     18 C           9.5192   40.6606    8.8355 C.3     1  UNL1        0.1031
     19 C           8.5490   41.0526    7.7352 C.3     1  UNL1        0.0907
     20 C           8.6926   40.1317    6.5743 C.ar    1  UNL1        0.1822
     21 C           9.1485   39.3583    4.6997 C.ar    1  UNL1        0.2368
     22 C           9.6330   39.1996    3.3019 C.3     1  UNL1        0.0978
     23 O           8.5475   38.4161    5.3820 O.2     1  UNL1       -0.3373
     24 N           8.2407   38.8628    6.5611 N.ar    1  UNL1       -0.0606
     25 N           9.2788   40.4900    5.4142 N.ar    1  UNL1       -0.1948
@<TRIPOS>BOND
     1    16    17    1
     2    17    15    1
     3    13    15    1
     4    13     7    1
     5     8    10   ar
     6     9     4    1
     7     9    11   ar
     8     1     5   am
     9     2     5    1
    10    18     5    1
    11    18    19    1
    12    19    20    1
    13    20    25   ar
    14    21    23   ar
    15    22    21    1
    16     4     1   am
    17    24    23   ar
    18    11     7   ar
    19    13    14    2
    20     7     8   ar
    21     9    10   ar
    22     1     3    2
    23    20    24   ar
    24    21    25   ar
    25     4     6    1
    26    11    12    1
@<TRIPOS>MOLECULE
MolPort-005-148-118 CSSS00159568032 MCULE-3943007993 PubChem-31192806
 25 26 0 0 0
SMALL
GASTEIGER

@<TRIPOS>ATOM
      1 C          10.4403   41.8055    7.5840 C.2     1  UNL1        0.3098
      2 C          11.5779   40.4827    5.7840 C.3     1  UNL1        0.1165
      3 O          10.4959   42.6759    8.4958 O.2     1  UNL1       -0.2522
      4 N           9.2225   41.0880    7.3397 N.am    1  UNL1       -0.2396
      5 N          11.6016   41.5366    6.7848 N.am    1  UNL1       -0.2617
      6 H           9.2115   40.4560    6.5850 H       1  UNL1        0.1592
      7 C           6.7253   41.3483    9.7634 C.ar    1  UNL1        0.1547
      8 C           5.9675   41.4860    8.6191 C.ar    1  UNL1        0.1253
      9 C           8.0217   41.2195    8.1081 C.ar    1  UNL1        0.2017
     10 N           6.7999   41.4047    7.5646 N.ar    1  UNL1       -0.2118
     11 N           8.0232   41.1785    9.4529 N.ar    1  UNL1       -0.3201
     12 H           8.7873   41.0546   10.0611 H       1  UNL1        0.1688
     13 C           6.2127   41.3748   11.1366 C.2     1  UNL1        0.3587
     14 O           6.9729   41.7078   12.0852 O.2     1  UNL1       -0.2432
     15 O           4.8802   41.0371   11.3824 O.3     1  UNL1       -0.4444
     16 C           2.8385   41.8591   10.4284 C.3     1  UNL1        0.0513
     17 C           3.8704   42.0250   11.5230 C.3     1  UNL1        0.2089
     18 C          12.8612   42.2258    7.0284 C.3     1  UNL1        0.1031
     19 C          13.2259   43.0901    5.8344 C.3     1  UNL1        0.0907
     20 C          14.5622   43.7125    6.0423 C.ar    1  UNL1        0.1822
     21 C          16.4764   44.1138    6.7460 C.ar    1  UNL1        0.2368
     22 C          17.7678   44.0489    7.4819 C.3     1  UNL1        0.0978
     23 O          16.1709   45.0430    5.8755 O.2     1  UNL1       -0.3373
     24 N          14.9766   44.8301    5.4148 N.ar    1  UNL1       -0.0606
     25 N          15.4826   43.2203    6.8958 N.ar    1  UNL1       -0.1948
@<TRIPOS>BOND
     1    16    17    1
     2    17    15    1
     3    13    15    1
     4    13     7    1
     5     8    10   ar
     6     9     4    1
     7     9    11   ar
     8     1     5   am
     9     2     5    1
    10    18     5    1
    11    18    19    1
    12    19    20    1
    13    20    25   ar
    14    21    23   ar
    15    22    21    1
    16     4     1   am
    17    24    23   ar
    18    11     7   ar
    19    13    14    2
    20     7     8   ar
    21     9    10   ar
    22     1     3    2
    23    20    24   ar
    24    21    25   ar
    25     4     6    1
    26    11    12    1
@<TRIPOS>MOLECULE
MolPort-005-148-118 CSSS00159568032 MCULE-3943007993 PubChem-31192806
 25 26 0 0 0
SMALL
GASTEIGER

@<TRIPOS>ATOM
      1 C          10.5693   41.7665    7.5242 C.2     1  UNL1        0.3098
      2 C          11.3515   40.6268    5.4330 C.3     1  UNL1        0.1165
      3 O          10.8205   42.4775    8.5358 O.2     1  UNL1       -0.2522
      4 N           9.2573   41.2204    7.3295 N.am    1  UNL1       -0.2396
      5 N          11.6019   41.5079    6.5617 N.am    1  UNL1       -0.2617
      6 H           9.0943   40.7153    6.5003 H       1  UNL1        0.1592
      7 C           7.0928   41.4594   10.0563 C.ar    1  UNL1        0.1547
      8 C           6.1996   41.6427    9.0213 C.ar    1  UNL1        0.1253
      9 C           8.1664   41.3526    8.2471 C.ar    1  UNL1        0.2017
     10 N           6.8901   41.5754    7.8679 N.ar    1  UNL1       -0.2118
     11 N           8.3370   41.2743    9.5794 N.ar    1  UNL1       -0.3201
     12 H           9.1690   41.1195   10.0824 H       1  UNL1        0.1688
     13 C           6.7586   41.4572   11.4837 C.2     1  UNL1        0.3587
     14 O           5.6255   41.0567   11.8636 O.2     1  UNL1       -0.2432
     15 O           7.7041   41.8931   12.4144 O.3     1  UNL1       -0.4444
     16 C           9.0254   41.1108   14.2573 C.3     1  UNL1        0.0513
     17 C           8.8369   41.1084   12.7557 C.3     1  UNL1        0.2089
     18 C          12.9519   42.0221    6.7468 C.3     1  UNL1        0.1031
     19 C          13.2147   43.1651    5.7825 C.3     1  UNL1        0.0907
     20 C          14.5686   43.7360    6.0223 C.ar    1  UNL1        0.1822
     21 C          16.4752   44.0707    6.7791 C.ar    1  UNL1        0.2368
     22 C          17.7398   43.9656    7.5559 C.3     1  UNL1        0.0978
     23 O          16.2351   44.9968    5.8853 O.2     1  UNL1       -0.3373
     24 N          15.0477   44.8251    5.3908 N.ar    1  UNL1       -0.0606
     25 N          15.4413   43.2210    6.9116 N.ar    1  UNL1       -0.1948
@<TRIPOS>BOND
     1    16    17    1
     2    17    15    1
     3    13    15    1
     4    13     7    1
     5     8    10   ar
     6     9     4    1
     7     9    11   ar
     8     1     5   am
     9     2     5    1
    10    18     5    1
    11    18    19    1
    12    19    20    1
    13    20    25   ar
    14    21    23   ar
    15    22    21    1
    16     4     1   am
    17    24    23   ar
    18    11     7   ar
    19    13    14    2
    20     7     8   ar
    21     9    10   ar
    22     1     3    2
    23    20    24   ar
    24    21    25   ar
    25     4     6    1
    26    11    12    1
@<TRIPOS>MOLECULE
MolPort-005-148-118 CSSS00159568032 MCULE-3943007993 PubChem-31192806
 25 26 0 0 0
SMALL
GASTEIGER

@<TRIPOS>ATOM
      1 C          10.5204   40.8616    7.8005 C.2     1  UNL1        0.3098
      2 C           9.7384   38.4809    7.7318 C.3     1  UNL1        0.1165
      3 O          10.2548   42.0936    7.8616 O.2     1  UNL1       -0.2522
      4 N          11.8772   40.4187    7.6569 N.am    1  UNL1       -0.2396
      5 N           9.4584   39.8996    7.8799 N.am    1  UNL1       -0.2617
      6 H          12.0411   39.4479    7.6656 H       1  UNL1        0.1592
      7 C          14.2158   42.8842    6.8634 C.ar    1  UNL1        0.1547
      8 C          14.9662   42.1051    7.7194 C.ar    1  UNL1        0.1253
      9 C          13.0114   41.2782    7.5021 C.ar    1  UNL1        0.2017
     10 N          14.1923   41.0817    8.1260 N.ar    1  UNL1       -0.2118
     11 N          12.9807   42.3713    6.7180 N.ar    1  UNL1       -0.3201
     12 H          12.2363   42.7123    6.1715 H       1  UNL1        0.1688
     13 C          14.6769   44.1019    6.1899 C.2     1  UNL1        0.3587
     14 O          13.9311   44.6786    5.3533 O.2     1  UNL1       -0.2432
     15 O          15.9396   44.6190    6.4872 O.3     1  UNL1       -0.4444
     16 C          18.1824   43.9341    6.9918 C.3     1  UNL1        0.0513
     17 C          17.1234   44.0782    5.9202 C.3     1  UNL1        0.2089
     18 C           8.0682   40.3183    7.9945 C.3     1  UNL1        0.1031
     19 C           7.5536   40.8023    6.6505 C.3     1  UNL1        0.0907
     20 C           8.4370   40.3116    5.5573 C.ar    1  UNL1        0.1822
     21 C           9.3249   39.1103    4.1120 C.ar    1  UNL1        0.2368
     22 C           9.6620   37.9737    3.2130 C.3     1  UNL1        0.0978
     23 O           9.9622   40.2540    4.1233 O.2     1  UNL1       -0.3373
     24 N           9.4392   41.0333    5.0195 N.ar    1  UNL1       -0.0606
     25 N           8.3248   39.0842    5.0106 N.ar    1  UNL1       -0.1948
@<TRIPOS>BOND
     1    16    17    1
     2    17    15    1
     3    13    15    1
     4    13     7    1
     5     8    10   ar
     6     9     4    1
     7     9    11   ar
     8     1     5   am
     9     2     5    1
    10    18     5    1
    11    18    19    1
    12    19    20    1
    13    20    25   ar
    14    21    23   ar
    15    22    21    1
    16     4     1   am
    17    24    23   ar
    18    11     7   ar
    19    13    14    2
    20     7     8   ar
    21     9    10   ar
    22     1     3    2
    23    20    24   ar
    24    21    25   ar
    25     4     6    1
    26    11    12    1
@<TRIPOS>MOLECULE
MolPort-005-148-118 CSSS00159568032 MCULE-3943007993 PubChem-31192806
 25 26 0 0 0
SMALL
GASTEIGER

@<TRIPOS>ATOM
      1 C          10.0461   42.0384    9.4759 C.2     1  UNL1        0.3098
      2 C          11.9317   40.5271   10.1425 C.3     1  UNL1        0.1165
      3 O           9.6375   43.0685    8.8726 O.2     1  UNL1       -0.2522
      4 N           9.1353   41.2378   10.2421 N.am    1  UNL1       -0.2396
      5 N          11.4291   41.6647    9.3901 N.am    1  UNL1       -0.2617
      6 H           9.4885   40.4156   10.6526 H       1  UNL1        0.1592
      7 C           5.7823   42.1940   10.0973 C.ar    1  UNL1        0.1547
      8 C           5.8427   41.7172   11.3903 C.ar    1  UNL1        0.1253
      9 C           7.7528   41.5411   10.4562 C.ar    1  UNL1        0.2017
     10 N           7.1024   41.2998   11.6144 N.ar    1  UNL1       -0.2118
     11 N           6.9824   42.0887    9.4986 N.ar    1  UNL1       -0.3201
     12 H           7.2352   42.3489    8.5833 H       1  UNL1        0.1688
     13 C           4.5919   42.7472    9.4447 C.2     1  UNL1        0.3587
     14 O           4.5145   43.9854    9.2229 O.2     1  UNL1       -0.2432
     15 O           3.5532   41.8939    9.0662 O.3     1  UNL1       -0.4444
     16 C           2.3741   42.0416   11.1499 C.3     1  UNL1        0.0513
     17 C           2.8179   41.1400   10.0182 C.3     1  UNL1        0.2089
     18 C          12.3844   42.4738    8.6459 C.3     1  UNL1        0.1031
     19 C          13.1954   41.5977    7.7078 C.3     1  UNL1        0.0907
     20 C          14.2555   42.4042    7.0427 C.ar    1  UNL1        0.1822
     21 C          16.0584   43.3475    6.6186 C.ar    1  UNL1        0.2368
     22 C          17.4643   43.8305    6.6808 C.3     1  UNL1        0.0978
     23 O          15.2145   43.6588    5.6671 O.2     1  UNL1       -0.3373
     24 N          14.0707   43.0912    5.8988 N.ar    1  UNL1       -0.0606
     25 N          15.5036   42.5352    7.5355 N.ar    1  UNL1       -0.1948
@<TRIPOS>BOND
     1    16    17    1
     2    17    15    1
     3    13    15    1
     4    13     7    1
     5     8    10   ar
     6     9     4    1
     7     9    11   ar
     8     1     5   am
     9     2     5    1
    10    18     5    1
    11    18    19    1
    12    19    20    1
    13    20    25   ar
    14    21    23   ar
    15    22    21    1
    16     4     1   am
    17    24    23   ar
    18    11     7   ar
    19    13    14    2
    20     7     8   ar
    21     9    10   ar
    22     1     3    2
    23    20    24   ar
    24    21    25   ar
    25     4     6    1
    26    11    12    1
@<TRIPOS>MOLECULE
MolPort-005-148-118 CSSS00159568032 MCULE-3943007993 PubChem-31192806
 25 26 0 0 0
SMALL
GASTEIGER

@<TRIPOS>ATOM
      1 C          10.6274   41.5115    7.6904 C.2     1  UNL1        0.3098
      2 C           8.8053   40.9091    6.0776 C.3     1  UNL1        0.1165
      3 O          11.0248   41.6588    8.8789 O.2     1  UNL1       -0.2522
      4 N          11.4899   41.8382    6.5918 N.am    1  UNL1       -0.2396
      5 N           9.3067   41.0099    7.4383 N.am    1  UNL1       -0.2617
      6 H          11.1558   41.6585    5.6834 H       1  UNL1        0.1592
      7 C          14.8084   42.6608    7.2912 C.ar    1  UNL1        0.1547
      8 C          14.4678   43.7106    6.4637 C.ar    1  UNL1        0.1253
      9 C          12.7987   42.4053    6.7136 C.ar    1  UNL1        0.2017
     10 N          13.1841   43.5422    6.0960 N.ar    1  UNL1       -0.2118
     11 N          13.7624   41.8313    7.4568 N.ar    1  UNL1       -0.3201
     12 H          13.7138   41.0059    7.9911 H       1  UNL1        0.1688
     13 C          16.1174   42.4568    7.9187 C.2     1  UNL1        0.3587
     14 O          16.3857   41.3556    8.4701 O.2     1  UNL1       -0.2432
     15 O          17.0623   43.4848    7.8939 O.3     1  UNL1       -0.4444
     16 C          17.7925   43.8681    5.6413 C.3     1  UNL1        0.0513
     17 C          18.1936   43.4424    7.0372 C.3     1  UNL1        0.2089
     18 C           8.3964   40.6986    8.5318 C.3     1  UNL1        0.1031
     19 C           7.5019   41.8900    8.8250 C.3     1  UNL1        0.0907
     20 C           6.1925   41.4271    9.3614 C.ar    1  UNL1        0.1822
     21 C           4.6839   40.8043   10.6484 C.ar    1  UNL1        0.2368
     22 C           3.9114   40.4237   11.8617 C.3     1  UNL1        0.0978
     23 O           4.2034   40.7756    9.4307 O.2     1  UNL1       -0.3373
     24 N           5.1198   41.1543    8.5937 N.ar    1  UNL1       -0.0606
     25 N           5.9620   41.2216   10.6738 N.ar    1  UNL1       -0.1948
@<TRIPOS>BOND
     1    16    17    1
     2    17    15    1
     3    13    15    1
     4    13     7    1
     5     8    10   ar
     6     9     4    1
     7     9    11   ar
     8     1     5   am
     9     2     5    1
    10    18     5    1
    11    18    19    1
    12    19    20    1
    13    20    25   ar
    14    21    23   ar
    15    22    21    1
    16     4     1   am
    17    24    23   ar
    18    11     7   ar
    19    13    14    2
    20     7     8   ar
    21     9    10   ar
    22     1     3    2
    23    20    24   ar
    24    21    25   ar
    25     4     6    1
    26    11    12    1
@<TRIPOS>MOLECULE
MolPort-005-148-118 CSSS00159568032 MCULE-3943007993 PubChem-31192806
 25 26 0 0 0
SMALL
GASTEIGER

@<TRIPOS>ATOM
      1 C          11.9268   40.0428    7.6531 C.2     1  UNL1        0.3098
      2 C           9.7916   41.0686    6.8332 C.3     1  UNL1        0.1165
      3 O          13.1882   40.0288    7.6795 O.2     1  UNL1       -0.2522
      4 N          11.1761   39.0288    8.3356 N.am    1  UNL1       -0.2396
      5 N          11.2412   41.0823    6.9398 N.am    1  UNL1       -0.2617
      6 H          10.1949   39.1097    8.3306 H       1  UNL1        0.1592
      7 C          13.1122   36.4160    9.6013 C.ar    1  UNL1        0.1547
      8 C          11.9839   36.2824   10.3836 C.ar    1  UNL1        0.1253
      9 C          11.7425   37.9085    9.0236 C.ar    1  UNL1        0.2017
     10 N          11.1127   37.2386   10.0122 N.ar    1  UNL1       -0.2118
     11 N          12.9706   37.4385    8.7388 N.ar    1  UNL1       -0.3201
     12 H          13.6095   37.7635    8.0639 H       1  UNL1        0.1688
     13 C          14.3091   35.5727    9.6760 C.2     1  UNL1        0.3587
     14 O          15.4108   36.0743   10.0271 O.2     1  UNL1       -0.2432
     15 O          14.2169   34.2147    9.3639 O.3     1  UNL1       -0.4444
     16 C          14.7250   32.1521    8.2497 C.3     1  UNL1        0.0513
     17 C          15.1711   33.5701    8.5335 C.3     1  UNL1        0.2089
     18 C          11.9750   42.1079    6.2112 C.3     1  UNL1        0.1031
     19 C          12.8141   42.9337    7.1700 C.3     1  UNL1        0.0907
     20 C          13.9846   43.5141    6.4562 C.ar    1  UNL1        0.1822
     21 C          15.9254   43.9355    5.8429 C.ar    1  UNL1        0.2368
     22 C          17.4059   43.9364    5.6960 C.3     1  UNL1        0.0978
     23 O          15.1176   44.7099    5.1630 O.2     1  UNL1       -0.3373
     24 N          13.8919   44.4799    5.5218 N.ar    1  UNL1       -0.0606
     25 N          15.2568   43.1347    6.6916 N.ar    1  UNL1       -0.1948
@<TRIPOS>BOND
     1    16    17    1
     2    17    15    1
     3    13    15    1
     4    13     7    1
     5     8    10   ar
     6     9     4    1
     7     9    11   ar
     8     1     5   am
     9     2     5    1
    10    18     5    1
    11    18    19    1
    12    19    20    1
    13    20    25   ar
    14    21    23   ar
    15    22    21    1
    16     4     1   am
    17    24    23   ar
    18    11     7   ar
    19    13    14    2
    20     7     8   ar
    21     9    10   ar
    22     1     3    2
    23    20    24   ar
    24    21    25   ar
    25     4     6    1
    26    11    12    1
