@<TRIPOS>MOLECULE
MolPort-020-295-159 MCULE-8672316029 PubChem-110267252
 25 27 0 0 0
SMALL
GASTEIGER

@<TRIPOS>ATOM
      1 C          11.9970   41.4855    7.0460 C.ar    1  UNL1        0.2214
      2 C          10.2325   41.4874    8.6245 C.ar    1  UNL1        0.1031
      3 C          10.6090   40.2203    9.0638 C.ar    1  UNL1        0.0355
      4 C          11.7086   39.6046    8.4568 C.ar    1  UNL1        0.0644
      5 N          10.9286   42.0948    7.6292 N.ar    1  UNL1       -0.2120
      6 N          12.3763   40.2490    7.4642 N.ar    1  UNL1       -0.2179
      7 C          12.1638   38.2460    8.8830 C.3     1  UNL1        0.0582
      8 C          11.2490   37.6670    9.9643 C.3     1  UNL1        0.0089
      9 C          11.7550   36.3026   10.4405 C.3     1  UNL1        0.0196
     10 C          13.2862   36.2308   10.4970 C.3     1  UNL1        0.0954
     11 C          13.6437   38.2649    9.3091 C.3     1  UNL1        0.1013
     12 N          13.8691   37.5698   10.5813 N.3     1  UNL1       -0.1590
     13 C          16.4368   38.8829   10.3196 C.3     1  UNL1        0.1960
     14 S          15.5825   37.3920   10.7890 S.O2    1  UNL1        0.0457
     15 O          15.8827   37.0877   12.2298 O.2     1  UNL1       -0.1572
     16 O          16.0745   36.2558    9.9370 O.2     1  UNL1       -0.1572
     17 N          12.7333   42.1240    5.9959 N.pl3   1  UNL1       -0.2682
     18 H          12.4712   41.9031    5.0730 H       1  UNL1        0.1565
     19 C          14.8748   41.5045    7.8458 C.3     1  UNL1        0.0340
     20 C          14.8593   42.7644    7.0499 C.ar    1  UNL1        0.0099
     21 C          13.8152   43.0539    6.1557 C.ar    1  UNL1        0.1302
     22 C          14.8566   45.1175    5.5811 C.ar    1  UNL1        0.1003
     23 C          15.9089   44.8610    6.4602 C.ar    1  UNL1        0.0204
     24 C          15.9060   43.6766    7.1967 C.ar    1  UNL1        0.0001
     25 N          13.8442   44.2191    5.4491 N.ar    1  UNL1       -0.2293
@<TRIPOS>BOND
     1    19    20    1
     2    21    25   ar
     3    21    17    1
     4    22    23   ar
     5    24    20   ar
     6     1     6   ar
     7     2     5   ar
     8     3     4   ar
     9     7     4    1
    10     7     8    1
    11     8     9    1
    12     9    10    1
    13    10    12    1
    14    11    12    1
    15    11     7    1
    16    17     1    1
    17    14    12    1
    18    14    13    1
    19    20    21   ar
    20    22    25   ar
    21    23    24   ar
    22     1     5   ar
    23     2     3   ar
    24     4     6   ar
    25    14    15    2
    26    14    16    2
    27    17    18    1
@<TRIPOS>MOLECULE
MolPort-020-295-159 MCULE-8672316029 PubChem-110267252
 25 27 0 0 0
SMALL
GASTEIGER

@<TRIPOS>ATOM
      1 C          13.3173   41.7187    7.4468 C.ar    1  UNL1        0.2214
      2 C          11.7356   40.1117    6.7251 C.ar    1  UNL1        0.1031
      3 C          12.1571   39.2331    7.7203 C.ar    1  UNL1        0.0355
      4 C          13.1835   39.6418    8.5783 C.ar    1  UNL1        0.0644
      5 N          12.3191   41.3321    6.6059 N.ar    1  UNL1       -0.2120
      6 N          13.7393   40.8721    8.4229 N.ar    1  UNL1       -0.2179
      7 C          13.6808   38.7463    9.6671 C.3     1  UNL1        0.0582
      8 C          13.7502   39.4843   11.0057 C.3     1  UNL1        0.0089
      9 C          14.3180   38.5807   12.1035 C.3     1  UNL1        0.0196
     10 C          15.4260   37.6540   11.5872 C.3     1  UNL1        0.0954
     11 C          15.0223   38.0955    9.2810 C.3     1  UNL1        0.1013
     12 N          16.0162   38.1808   10.3568 N.3     1  UNL1       -0.1590
     13 C          16.8310   35.8833    8.7936 C.3     1  UNL1        0.1960
     14 S          17.3493   37.1573    9.9257 S.O2    1  UNL1        0.0457
     15 O          18.4240   37.9831    9.2761 O.2     1  UNL1       -0.1572
     16 O          17.9081   36.5153   11.1643 O.2     1  UNL1       -0.1572
     17 N          13.9347   43.0056    7.3234 N.pl3   1  UNL1       -0.2682
     18 H          13.3926   43.7843    7.5858 H       1  UNL1        0.1565
     19 C          16.1933   41.9056    8.7660 C.3     1  UNL1        0.0340
     20 C          16.3684   42.7443    7.5465 C.ar    1  UNL1        0.0099
     21 C          15.2653   43.2723    6.8552 C.ar    1  UNL1        0.1302
     22 C          16.7242   44.3022    5.2792 C.ar    1  UNL1        0.1003
     23 C          17.8414   43.7934    5.9418 C.ar    1  UNL1        0.0204
     24 C          17.6576   43.0106    7.0815 C.ar    1  UNL1        0.0001
     25 N          15.4748   44.0339    5.7444 N.ar    1  UNL1       -0.2293
@<TRIPOS>BOND
     1    19    20    1
     2    21    25   ar
     3    21    17    1
     4    22    23   ar
     5    24    20   ar
     6     1     6   ar
     7     2     5   ar
     8     3     4   ar
     9     7     4    1
    10     7     8    1
    11     8     9    1
    12     9    10    1
    13    10    12    1
    14    11    12    1
    15    11     7    1
    16    17     1    1
    17    14    12    1
    18    14    13    1
    19    20    21   ar
    20    22    25   ar
    21    23    24   ar
    22     1     5   ar
    23     2     3   ar
    24     4     6   ar
    25    14    15    2
    26    14    16    2
    27    17    18    1
@<TRIPOS>MOLECULE
MolPort-020-295-159 MCULE-8672316029 PubChem-110267252
 25 27 0 0 0
SMALL
GASTEIGER

@<TRIPOS>ATOM
      1 C          12.4764   41.9513    6.3646 C.ar    1  UNL1        0.2214
      2 C          14.6846   42.6323    6.8798 C.ar    1  UNL1        0.1031
      3 C          14.7570   41.6741    7.8881 C.ar    1  UNL1        0.0355
      4 C          13.6447   40.8552    8.1096 C.ar    1  UNL1        0.0644
      5 N          13.5525   42.7539    6.1395 N.ar    1  UNL1       -0.2120
      6 N          12.5322   41.0116    7.3451 N.ar    1  UNL1       -0.2179
      7 C          13.6588   39.8074    9.1757 C.3     1  UNL1        0.0582
      8 C          13.1696   40.3680   10.5127 C.3     1  UNL1        0.0089
      9 C          13.2444   39.3075   11.6146 C.3     1  UNL1        0.0196
     10 C          14.4727   38.3996   11.4739 C.3     1  UNL1        0.0954
     11 C          15.0451   39.1451    9.2845 C.3     1  UNL1        0.1013
     12 N          15.5112   39.0465   10.6721 N.3     1  UNL1       -0.1590
     13 C          18.3995   38.9816   10.8706 C.3     1  UNL1        0.1960
     14 S          16.9107   38.0210   10.6868 S.O2    1  UNL1        0.0457
     15 O          16.8082   37.0515   11.8307 O.2     1  UNL1       -0.1572
     16 O          16.9800   37.2505    9.3983 O.2     1  UNL1       -0.1572
     17 N          11.2810   42.0773    5.5852 N.pl3   1  UNL1       -0.2682
     18 H          11.3038   42.7189    4.8388 H       1  UNL1        0.1565
     19 C          10.8135   39.6267    4.1127 C.3     1  UNL1        0.0340
     20 C           9.8150   40.1713    5.0759 C.ar    1  UNL1        0.0099
     21 C          10.0530   41.3608    5.7843 C.ar    1  UNL1        0.1302
     22 C           7.9387   41.1617    6.8627 C.ar    1  UNL1        0.1003
     23 C           7.6707   39.9776    6.1755 C.ar    1  UNL1        0.0204
     24 C           8.6171   39.4834    5.2781 C.ar    1  UNL1        0.0001
     25 N           9.1102   41.8202    6.6550 N.ar    1  UNL1       -0.2293
@<TRIPOS>BOND
     1    19    20    1
     2    21    25   ar
     3    21    17    1
     4    22    23   ar
     5    24    20   ar
     6     1     6   ar
     7     2     5   ar
     8     3     4   ar
     9     7     4    1
    10     7     8    1
    11     8     9    1
    12     9    10    1
    13    10    12    1
    14    11    12    1
    15    11     7    1
    16    17     1    1
    17    14    12    1
    18    14    13    1
    19    20    21   ar
    20    22    25   ar
    21    23    24   ar
    22     1     5   ar
    23     2     3   ar
    24     4     6   ar
    25    14    15    2
    26    14    16    2
    27    17    18    1
@<TRIPOS>MOLECULE
MolPort-020-295-159 MCULE-8672316029 PubChem-110267252
 25 27 0 0 0
SMALL
GASTEIGER

@<TRIPOS>ATOM
      1 C          14.9731   40.6014    9.2193 C.ar    1  UNL1        0.2214
      2 C          14.5615   39.1963   11.0798 C.ar    1  UNL1        0.1031
      3 C          13.1999   39.1874   10.7863 C.ar    1  UNL1        0.0355
      4 C          12.7531   39.9132    9.6771 C.ar    1  UNL1        0.0644
      5 N          15.4198   39.8987   10.2961 N.ar    1  UNL1       -0.2120
      6 N          13.6471   40.6021    8.9203 N.ar    1  UNL1       -0.2179
      7 C          11.3048   39.9437    9.3081 C.3     1  UNL1        0.0582
      8 C          11.1191   40.0254    7.7915 C.3     1  UNL1        0.0089
      9 C           9.6360   40.1184    7.4229 C.3     1  UNL1        0.0196
     10 C           8.8338   40.9613    8.4224 C.3     1  UNL1        0.0954
     11 C          10.5654   41.0693   10.0554 C.3     1  UNL1        0.1013
     12 N           9.7113   41.8647    9.1663 N.3     1  UNL1       -0.1590
     13 C           8.3310   42.0727   11.7035 C.3     1  UNL1        0.1960
     14 S           8.7129   42.8770   10.1606 S.O2    1  UNL1        0.0457
     15 O           9.4328   44.1655   10.4443 O.2     1  UNL1       -0.1572
     16 O           7.4318   43.1825    9.4365 O.2     1  UNL1       -0.1572
     17 N          15.8762   41.3432    8.3907 N.pl3   1  UNL1       -0.2682
     18 H          16.8271   41.0919    8.4356 H       1  UNL1        0.1565
     19 C          17.5523   43.7044    8.3028 C.3     1  UNL1        0.0340
     20 C          16.3377   43.5666    7.4502 C.ar    1  UNL1        0.0099
     21 C          15.5325   42.4165    7.5016 C.ar    1  UNL1        0.1302
     22 C          14.0824   43.3373    5.8516 C.ar    1  UNL1        0.1003
     23 C          14.8601   44.4929    5.7758 C.ar    1  UNL1        0.0204
     24 C          15.9931   44.6038    6.5815 C.ar    1  UNL1        0.0001
     25 N          14.4311   42.3356    6.7028 N.ar    1  UNL1       -0.2293
@<TRIPOS>BOND
     1    19    20    1
     2    21    25   ar
     3    21    17    1
     4    22    23   ar
     5    24    20   ar
     6     1     6   ar
     7     2     5   ar
     8     3     4   ar
     9     7     4    1
    10     7     8    1
    11     8     9    1
    12     9    10    1
    13    10    12    1
    14    11    12    1
    15    11     7    1
    16    17     1    1
    17    14    12    1
    18    14    13    1
    19    20    21   ar
    20    22    25   ar
    21    23    24   ar
    22     1     5   ar
    23     2     3   ar
    24     4     6   ar
    25    14    15    2
    26    14    16    2
    27    17    18    1
@<TRIPOS>MOLECULE
MolPort-020-295-159 MCULE-8672316029 PubChem-110267252
 25 27 0 0 0
SMALL
GASTEIGER

@<TRIPOS>ATOM
      1 C          15.1475   40.5257    8.8503 C.ar    1  UNL1        0.2214
      2 C          15.1135   38.2606    9.5384 C.ar    1  UNL1        0.1031
      3 C          13.7376   38.2056    9.3284 C.ar    1  UNL1        0.0355
      4 C          13.0877   39.3559    8.8689 C.ar    1  UNL1        0.0644
      5 N          15.7910   39.4126    9.2972 N.ar    1  UNL1       -0.2120
      6 N          13.8050   40.4873    8.6407 N.ar    1  UNL1       -0.2179
      7 C          11.6132   39.3622    8.6231 C.3     1  UNL1        0.0582
      8 C          11.0213   37.9575    8.7571 C.3     1  UNL1        0.0089
      9 C           9.5226   37.9597    8.4441 C.3     1  UNL1        0.0196
     10 C           9.1603   38.9283    7.3112 C.3     1  UNL1        0.0954
     11 C          11.2790   40.0174    7.2699 C.3     1  UNL1        0.1013
     12 N          10.3291   39.2235    6.4826 N.3     1  UNL1       -0.1590
     13 C          10.8384   39.9397    3.7234 C.3     1  UNL1        0.1960
     14 S           9.8027   40.2007    5.1491 S.O2    1  UNL1        0.0457
     15 O           8.3854   39.8452    4.7974 O.2     1  UNL1       -0.1572
     16 O           9.8603   41.6512    5.5383 O.2     1  UNL1       -0.1572
     17 N          15.8597   41.7422    8.5950 N.pl3   1  UNL1       -0.2682
     18 H          16.5934   41.9644    9.2126 H       1  UNL1        0.1565
     19 C          17.7613   43.8681    8.0882 C.3     1  UNL1        0.0340
     20 C          16.5246   43.7045    7.2727 C.ar    1  UNL1        0.0099
     21 C          15.6097   42.6695    7.5280 C.ar    1  UNL1        0.1302
     22 C          14.2308   43.4240    5.7384 C.ar    1  UNL1        0.1003
     23 C          15.1185   44.4630    5.4582 C.ar    1  UNL1        0.0204
     24 C          16.2705   44.6001    6.2323 C.ar    1  UNL1        0.0001
     25 N          14.4922   42.5597    6.7553 N.ar    1  UNL1       -0.2293
@<TRIPOS>BOND
     1    19    20    1
     2    21    25   ar
     3    21    17    1
     4    22    23   ar
     5    24    20   ar
     6     1     6   ar
     7     2     5   ar
     8     3     4   ar
     9     7     4    1
    10     7     8    1
    11     8     9    1
    12     9    10    1
    13    10    12    1
    14    11    12    1
    15    11     7    1
    16    17     1    1
    17    14    12    1
    18    14    13    1
    19    20    21   ar
    20    22    25   ar
    21    23    24   ar
    22     1     5   ar
    23     2     3   ar
    24     4     6   ar
    25    14    15    2
    26    14    16    2
    27    17    18    1
@<TRIPOS>MOLECULE
MolPort-020-295-159 MCULE-8672316029 PubChem-110267252
 25 27 0 0 0
SMALL
GASTEIGER

@<TRIPOS>ATOM
      1 C          13.4440   40.7611    8.7602 C.ar    1  UNL1        0.2214
      2 C          12.0253   39.9815   10.4879 C.ar    1  UNL1        0.1031
      3 C          10.9344   40.0143    9.6224 C.ar    1  UNL1        0.0355
      4 C          11.1423   40.4352    8.3047 C.ar    1  UNL1        0.0644
      5 N          13.2541   40.3531   10.0449 N.ar    1  UNL1       -0.2120
      6 N          12.3890   40.7983    7.9039 N.ar    1  UNL1       -0.2179
      7 C          10.0135   40.4921    7.3263 C.3     1  UNL1        0.0582
      8 C           8.7227   39.9391    7.9341 C.3     1  UNL1        0.0089
      9 C           7.5859   39.9428    6.9085 C.3     1  UNL1        0.0196
     10 C           8.0703   39.6039    5.4931 C.3     1  UNL1        0.0954
     11 C          10.3893   39.7968    6.0044 C.3     1  UNL1        0.1013
     12 N           9.3422   38.8826    5.5350 N.3     1  UNL1       -0.1590
     13 C          11.4364   38.8070    3.5365 C.3     1  UNL1        0.1960
     14 S           9.7407   38.4121    3.9133 S.O2    1  UNL1        0.0457
     15 O           9.5358   36.9314    3.7575 O.2     1  UNL1       -0.1572
     16 O           8.8428   39.1338    2.9480 O.2     1  UNL1       -0.1572
     17 N          14.7392   41.1536    8.2902 N.pl3   1  UNL1       -0.2682
     18 H          15.4997   40.5926    8.5661 H       1  UNL1        0.1565
     19 C          17.2668   42.5301    8.6195 C.3     1  UNL1        0.0340
     20 C          16.2606   42.9591    7.6072 C.ar    1  UNL1        0.0099
     21 C          15.0381   42.2835    7.4567 C.ar    1  UNL1        0.1302
     22 C          14.4064   43.7797    5.7144 C.ar    1  UNL1        0.1003
     23 C          15.6107   44.4728    5.8377 C.ar    1  UNL1        0.0204
     24 C          16.5400   44.0566    6.7908 C.ar    1  UNL1        0.0001
     25 N          14.1488   42.7124    6.5170 N.ar    1  UNL1       -0.2293
@<TRIPOS>BOND
     1    19    20    1
     2    21    25   ar
     3    21    17    1
     4    22    23   ar
     5    24    20   ar
     6     1     6   ar
     7     2     5   ar
     8     3     4   ar
     9     7     4    1
    10     7     8    1
    11     8     9    1
    12     9    10    1
    13    10    12    1
    14    11    12    1
    15    11     7    1
    16    17     1    1
    17    14    12    1
    18    14    13    1
    19    20    21   ar
    20    22    25   ar
    21    23    24   ar
    22     1     5   ar
    23     2     3   ar
    24     4     6   ar
    25    14    15    2
    26    14    16    2
    27    17    18    1
@<TRIPOS>MOLECULE
MolPort-020-295-159 MCULE-8672316029 PubChem-110267252
 25 27 0 0 0
SMALL
GASTEIGER

@<TRIPOS>ATOM
      1 C          13.4966   41.1726    8.6422 C.ar    1  UNL1        0.2214
      2 C          13.4563   39.7668   10.5468 C.ar    1  UNL1        0.1031
      3 C          12.1946   40.2475   10.8891 C.ar    1  UNL1        0.0355
      4 C          11.6033   41.2112   10.0654 C.ar    1  UNL1        0.0644
      5 N          14.0821   40.2345    9.4360 N.ar    1  UNL1       -0.2120
      6 N          12.2655   41.6511    8.9634 N.ar    1  UNL1       -0.2179
      7 C          10.2509   41.7668   10.3770 C.3     1  UNL1        0.0582
      8 C           9.6522   41.1073   11.6212 C.3     1  UNL1        0.0089
      9 C           8.2425   41.6358   11.8997 C.3     1  UNL1        0.0196
     10 C           7.4487   41.8986   10.6137 C.3     1  UNL1        0.0954
     11 C           9.3188   41.6768    9.1543 C.3     1  UNL1        0.1013
     12 N           7.9991   41.1339    9.4948 N.3     1  UNL1       -0.1590
     13 C           7.4476   40.3250    6.7695 C.3     1  UNL1        0.1960
     14 S           6.9609   41.3728    8.1254 S.O2    1  UNL1        0.0457
     15 O           5.5440   41.0510    8.5098 O.2     1  UNL1       -0.1572
     16 O           7.0339   42.8084    7.6866 O.2     1  UNL1       -0.1572
     17 N          14.1543   41.6677    7.4698 N.pl3   1  UNL1       -0.2682
     18 H          13.7494   41.4358    6.6029 H       1  UNL1        0.1565
     19 C          14.2735   43.9530    5.6935 C.3     1  UNL1        0.0340
     20 C          15.4148   43.5791    6.5760 C.ar    1  UNL1        0.0099
     21 C          15.3452   42.4684    7.4334 C.ar    1  UNL1        0.1302
     22 C          17.5546   42.9065    8.2079 C.ar    1  UNL1        0.1003
     23 C          17.6568   44.0158    7.3682 C.ar    1  UNL1        0.0204
     24 C          16.5784   44.3502    6.5495 C.ar    1  UNL1        0.0001
     25 N          16.4145   42.1653    8.2224 N.ar    1  UNL1       -0.2293
@<TRIPOS>BOND
     1    19    20    1
     2    21    25   ar
     3    21    17    1
     4    22    23   ar
     5    24    20   ar
     6     1     6   ar
     7     2     5   ar
     8     3     4   ar
     9     7     4    1
    10     7     8    1
    11     8     9    1
    12     9    10    1
    13    10    12    1
    14    11    12    1
    15    11     7    1
    16    17     1    1
    17    14    12    1
    18    14    13    1
    19    20    21   ar
    20    22    25   ar
    21    23    24   ar
    22     1     5   ar
    23     2     3   ar
    24     4     6   ar
    25    14    15    2
    26    14    16    2
    27    17    18    1
@<TRIPOS>MOLECULE
MolPort-020-295-159 MCULE-8672316029 PubChem-110267252
 25 27 0 0 0
SMALL
GASTEIGER

@<TRIPOS>ATOM
      1 C           9.0639   41.8803    7.8207 C.ar    1  UNL1        0.2214
      2 C           9.0992   40.8290    5.6997 C.ar    1  UNL1        0.1031
      3 C          10.4911   40.7870    5.7311 C.ar    1  UNL1        0.0355
      4 C          11.1482   41.3128    6.8486 C.ar    1  UNL1        0.0644
      5 N           8.4133   41.3715    6.7387 N.ar    1  UNL1       -0.2120
      6 N          10.4220   41.8463    7.8657 N.ar    1  UNL1       -0.2179
      7 C          12.6399   41.2974    6.9439 C.3     1  UNL1        0.0582
      8 C          13.1036   41.2801    8.4020 C.3     1  UNL1        0.0089
      9 C          14.6312   41.3265    8.4942 C.3     1  UNL1        0.0196
     10 C          15.2582   42.2184    7.4151 C.3     1  UNL1        0.0954
     11 C          13.2593   42.4564    6.1407 C.3     1  UNL1        0.1013
     12 N          14.2835   43.1806    6.9016 N.3     1  UNL1       -0.1590
     13 C          16.8659   44.2110    6.0925 C.3     1  UNL1        0.1960
     14 S          15.1088   44.2382    5.8013 S.O2    1  UNL1        0.0457
     15 O          14.8389   43.8000    4.3892 O.2     1  UNL1       -0.1572
     16 O          14.6032   45.6419    5.9822 O.2     1  UNL1       -0.1572
     17 N           8.3429   42.4531    8.9182 N.pl3   1  UNL1       -0.2682
     18 H           8.7166   43.2733    9.3144 H       1  UNL1        0.1565
     19 C           8.2614   41.8677   11.7542 C.3     1  UNL1        0.0340
     20 C           7.0780   41.6626   10.8717 C.ar    1  UNL1        0.0099
     21 C           7.1296   41.9501    9.4976 C.ar    1  UNL1        0.1302
     22 C           4.8598   41.2711    9.2530 C.ar    1  UNL1        0.1003
     23 C           4.7745   40.9754   10.6136 C.ar    1  UNL1        0.0204
     24 C           5.8924   41.1738   11.4237 C.ar    1  UNL1        0.0001
     25 N           6.0217   41.7465    8.7302 N.ar    1  UNL1       -0.2293
@<TRIPOS>BOND
     1    19    20    1
     2    21    25   ar
     3    21    17    1
     4    22    23   ar
     5    24    20   ar
     6     1     6   ar
     7     2     5   ar
     8     3     4   ar
     9     7     4    1
    10     7     8    1
    11     8     9    1
    12     9    10    1
    13    10    12    1
    14    11    12    1
    15    11     7    1
    16    17     1    1
    17    14    12    1
    18    14    13    1
    19    20    21   ar
    20    22    25   ar
    21    23    24   ar
    22     1     5   ar
    23     2     3   ar
    24     4     6   ar
    25    14    15    2
    26    14    16    2
    27    17    18    1
@<TRIPOS>MOLECULE
MolPort-020-295-159 MCULE-8672316029 PubChem-110267252
 25 27 0 0 0
SMALL
GASTEIGER

@<TRIPOS>ATOM
      1 C          13.6236   40.5787    8.8900 C.ar    1  UNL1        0.2214
      2 C          12.0483   39.9690   10.5489 C.ar    1  UNL1        0.1031
      3 C          11.1567   39.5497    9.5643 C.ar    1  UNL1        0.0355
      4 C          11.5427   39.6629    8.2245 C.ar    1  UNL1        0.0644
      5 N          13.2592   40.4733   10.1973 N.ar    1  UNL1       -0.2120
      6 N          12.7641   40.1736    7.9180 N.ar    1  UNL1       -0.2179
      7 C          10.6324   39.2301    7.1207 C.3     1  UNL1        0.0582
      8 C          11.2148   39.5812    5.7499 C.3     1  UNL1        0.0089
      9 C          10.2507   39.1913    4.6261 C.3     1  UNL1        0.0196
     10 C           8.7821   39.4172    5.0070 C.3     1  UNL1        0.0954
     11 C           9.2121   39.7913    7.3204 C.3     1  UNL1        0.1013
     12 N           8.6682   40.3879    6.0953 N.3     1  UNL1       -0.1590
     13 C           6.6699   41.0921    8.0693 C.3     1  UNL1        0.1960
     14 S           6.9811   40.6934    6.3613 S.O2    1  UNL1        0.0457
     15 O           6.5395   41.8438    5.5009 O.2     1  UNL1       -0.1572
     16 O           6.1870   39.4726    5.9900 O.2     1  UNL1       -0.1572
     17 N          14.9004   41.1102    8.5162 N.pl3   1  UNL1       -0.2682
     18 H          15.6920   40.6912    8.9249 H       1  UNL1        0.1565
     19 C          17.4170   42.5395    8.6423 C.3     1  UNL1        0.0340
     20 C          16.3568   42.8937    7.6565 C.ar    1  UNL1        0.0099
     21 C          15.1402   42.1932    7.6049 C.ar    1  UNL1        0.1302
     22 C          14.4012   43.5749    5.8110 C.ar    1  UNL1        0.1003
     23 C          15.5980   44.2911    5.8354 C.ar    1  UNL1        0.0204
     24 C          16.5784   43.9451    6.7650 C.ar    1  UNL1        0.0001
     25 N          14.2002   42.5533    6.6859 N.ar    1  UNL1       -0.2293
@<TRIPOS>BOND
     1    19    20    1
     2    21    25   ar
     3    21    17    1
     4    22    23   ar
     5    24    20   ar
     6     1     6   ar
     7     2     5   ar
     8     3     4   ar
     9     7     4    1
    10     7     8    1
    11     8     9    1
    12     9    10    1
    13    10    12    1
    14    11    12    1
    15    11     7    1
    16    17     1    1
    17    14    12    1
    18    14    13    1
    19    20    21   ar
    20    22    25   ar
    21    23    24   ar
    22     1     5   ar
    23     2     3   ar
    24     4     6   ar
    25    14    15    2
    26    14    16    2
    27    17    18    1
@<TRIPOS>MOLECULE
MolPort-020-295-159 MCULE-8672316029 PubChem-110267252
 25 27 0 0 0
SMALL
GASTEIGER

@<TRIPOS>ATOM
      1 C          13.7157   40.8605    8.9819 C.ar    1  UNL1        0.2214
      2 C          12.8501   39.8318   10.9307 C.ar    1  UNL1        0.1031
      3 C          11.5704   40.2810   10.6131 C.ar    1  UNL1        0.0355
      4 C          11.3993   41.0335    9.4464 C.ar    1  UNL1        0.0644
      5 N          13.8946   40.1272   10.1147 N.ar    1  UNL1       -0.2120
      6 N          12.4727   41.3058    8.6589 N.ar    1  UNL1       -0.2179
      7 C          10.0518   41.5443    9.0491 C.3     1  UNL1        0.0582
      8 C           9.0228   41.3199   10.1591 C.3     1  UNL1        0.0089
      9 C           7.6319   41.7888    9.7232 C.3     1  UNL1        0.0196
     10 C           7.3552   41.5086    8.2407 C.3     1  UNL1        0.0954
     11 C           9.6068   40.9462    7.7014 C.3     1  UNL1        0.1013
     12 N           8.2275   40.4474    7.7381 N.3     1  UNL1       -0.1590
     13 C           9.1222   39.4514    5.1704 C.3     1  UNL1        0.1960
     14 S           7.7506   40.0943    6.1077 S.O2    1  UNL1        0.0457
     15 O           6.6446   39.0767    6.1194 O.2     1  UNL1       -0.1572
     16 O           7.2521   41.3499    5.4491 O.2     1  UNL1       -0.1572
     17 N          14.8158   41.1736    8.1192 N.pl3   1  UNL1       -0.2682
     18 H          15.5236   40.4939    8.0388 H       1  UNL1        0.1565
     19 C          17.2684   42.6889    8.4032 C.3     1  UNL1        0.0340
     20 C          16.1737   43.1232    7.4898 C.ar    1  UNL1        0.0099
     21 C          14.9887   42.3799    7.3605 C.ar    1  UNL1        0.1302
     22 C          14.1527   43.9553    5.7818 C.ar    1  UNL1        0.1003
     23 C          15.3168   44.7169    5.8865 C.ar    1  UNL1        0.0204
     24 C          16.3302   44.2947    6.7466 C.ar    1  UNL1        0.0001
     25 N          14.0152   42.8165    6.5123 N.ar    1  UNL1       -0.2293
@<TRIPOS>BOND
     1    19    20    1
     2    21    25   ar
     3    21    17    1
     4    22    23   ar
     5    24    20   ar
     6     1     6   ar
     7     2     5   ar
     8     3     4   ar
     9     7     4    1
    10     7     8    1
    11     8     9    1
    12     9    10    1
    13    10    12    1
    14    11    12    1
    15    11     7    1
    16    17     1    1
    17    14    12    1
    18    14    13    1
    19    20    21   ar
    20    22    25   ar
    21    23    24   ar
    22     1     5   ar
    23     2     3   ar
    24     4     6   ar
    25    14    15    2
    26    14    16    2
    27    17    18    1
