@<TRIPOS>MOLECULE
MolPort-002-784-756 20616519 CSSS00160413342 MCULE-3638599793 ZINC000020616519
 25 26 0 0 0
SMALL
GASTEIGER

@<TRIPOS>ATOM
      1 C          11.0672   41.0050    6.6744 C.2     1  UNL1        0.2682
      2 O          10.4149   41.9254    6.1123 O.2     1  UNL1       -0.2681
      3 N          12.4738   41.1509    6.9005 N.am    1  UNL1       -0.2649
      4 H          12.9485   40.3920    7.3102 H       1  UNL1        0.1566
      5 C          14.8001   43.7855    6.4895 C.ar    1  UNL1        0.1787
      6 C          13.2434   42.3131    6.5775 C.ar    1  UNL1        0.1294
      7 C          14.4969   42.5765    7.0907 C.ar    1  UNL1        0.0613
      8 N          13.7969   44.1931    5.6884 N.ar    1  UNL1       -0.1650
      9 N          12.8372   43.2864    5.7422 N.ar    1  UNL1       -0.2626
     10 H          11.9802   43.3175    5.2586 H       1  UNL1        0.1903
     11 C          16.0424   44.5387    6.6869 C.2     1  UNL1        0.3609
     12 O          16.4687   45.2940    5.7710 O.2     1  UNL1       -0.2431
     13 O          16.7433   44.4143    7.8882 O.3     1  UNL1       -0.4444
     14 C          17.8702   42.3177    8.1709 C.3     1  UNL1        0.0513
     15 C          18.0255   43.8077    7.9495 C.3     1  UNL1        0.2089
     16 C          10.3809   39.7521    7.0538 C.ar    1  UNL1        0.1392
     17 C           9.2587   39.1784    6.4669 C.ar    1  UNL1        0.1179
     18 C           8.9646   38.0631    7.2347 C.ar    1  UNL1        0.1282
     19 C          11.8037   39.2209    9.0503 C.3     1  UNL1        0.1539
     20 N           9.8718   37.9784    8.2293 N.ar    1  UNL1       -0.1673
     21 N          10.7193   38.9861    8.1105 N.ar    1  UNL1       -0.2441
     22 C           8.5383   39.5577    5.2396 C.2     1  UNL1        0.3412
     23 O           7.6892   40.6573    5.2526 O.3     1  UNL1       -0.4770
     24 O           8.6429   38.8750    4.1882 O.2     1  UNL1       -0.2450
     25 H           7.6029   41.1734    6.0298 H       1  UNL1        0.2954
@<TRIPOS>BOND
     1    14    15    1
     2    15    13    1
     3    11    13    1
     4    11     5    1
     5     6     3    1
     6     1    16    1
     7    17    18   ar
     8    17    22    1
     9    19    21    1
    10    22    23    1
    11     7     5   ar
    12     9     8   ar
    13     9     6   ar
    14     3     1   am
    15    21    20   ar
    16    21    16   ar
    17    11    12    2
    18     5     8   ar
    19     6     7   ar
    20     1     2    2
    21    16    17   ar
    22    18    20   ar
    23    22    24    2
    24    23    25    1
    25     9    10    1
    26     3     4    1
@<TRIPOS>MOLECULE
MolPort-002-784-756 20616519 CSSS00160413342 MCULE-3638599793 ZINC000020616519
 25 26 0 0 0
SMALL
GASTEIGER

@<TRIPOS>ATOM
      1 C          10.0967   41.3738    5.9669 C.2     1  UNL1        0.2682
      2 O          10.3142   42.1851    5.0273 O.2     1  UNL1       -0.2681
      3 N          11.1369   41.0496    6.8965 N.am    1  UNL1       -0.2649
      4 H          10.9320   40.3841    7.5925 H       1  UNL1        0.1566
      5 C          14.1491   42.8595    6.4816 C.ar    1  UNL1        0.1787
      6 C          12.4504   41.6168    6.8929 C.ar    1  UNL1        0.1294
      7 C          12.8138   42.7189    6.1464 C.ar    1  UNL1        0.0613
      8 N          14.5315   41.9094    7.3563 N.ar    1  UNL1       -0.1650
      9 N          13.4854   41.1430    7.6102 N.ar    1  UNL1       -0.2626
     10 H          13.4668   40.3662    8.2147 H       1  UNL1        0.1903
     11 C          15.0451   43.8976    5.9629 C.2     1  UNL1        0.3609
     12 O          14.9997   44.2107    4.7418 O.2     1  UNL1       -0.2431
     13 O          15.9413   44.5321    6.8255 O.3     1  UNL1       -0.4444
     14 C          17.6465   43.7671    8.3265 C.3     1  UNL1        0.0513
     15 C          17.3070   44.1512    6.9016 C.3     1  UNL1        0.2089
     16 C           8.7756   40.7197    6.0743 C.ar    1  UNL1        0.1392
     17 C           7.6806   41.1199    6.8316 C.ar    1  UNL1        0.1179
     18 C           6.7231   40.1342    6.6537 C.ar    1  UNL1        0.1282
     19 C           9.2996   38.7406    4.6247 C.3     1  UNL1        0.1539
     20 N           7.2266   39.1945    5.8274 N.ar    1  UNL1       -0.1673
     21 N           8.4500   39.5546    5.4791 N.ar    1  UNL1       -0.2441
     22 C           7.4696   42.3554    7.6050 C.2     1  UNL1        0.3412
     23 O           7.6256   43.5893    6.9859 O.3     1  UNL1       -0.4770
     24 O           7.1941   42.3144    8.8317 O.2     1  UNL1       -0.2450
     25 H           7.8308   43.6327    6.0726 H       1  UNL1        0.2954
@<TRIPOS>BOND
     1    14    15    1
     2    15    13    1
     3    11    13    1
     4    11     5    1
     5     6     3    1
     6     1    16    1
     7    17    18   ar
     8    17    22    1
     9    19    21    1
    10    22    23    1
    11     7     5   ar
    12     9     8   ar
    13     9     6   ar
    14     3     1   am
    15    21    20   ar
    16    21    16   ar
    17    11    12    2
    18     5     8   ar
    19     6     7   ar
    20     1     2    2
    21    16    17   ar
    22    18    20   ar
    23    22    24    2
    24    23    25    1
    25     9    10    1
    26     3     4    1
@<TRIPOS>MOLECULE
MolPort-002-784-756 20616519 CSSS00160413342 MCULE-3638599793 ZINC000020616519
 25 26 0 0 0
SMALL
GASTEIGER

@<TRIPOS>ATOM
      1 C          13.3475   42.2250    7.2859 C.2     1  UNL1        0.2682
      2 O          12.5747   42.3366    8.2752 O.2     1  UNL1       -0.2681
      3 N          12.8490   41.7505    6.0300 N.am    1  UNL1       -0.2649
      4 H          13.4962   41.6456    5.2955 H       1  UNL1        0.1566
      5 C           9.6757   40.3375    5.3555 C.ar    1  UNL1        0.1787
      6 C          11.4844   41.4170    5.7588 C.ar    1  UNL1        0.1294
      7 C          11.0227   40.1272    5.5932 C.ar    1  UNL1        0.0613
      8 N           9.3788   41.6511    5.3805 N.ar    1  UNL1       -0.1650
      9 N          10.4927   42.3170    5.6289 N.ar    1  UNL1       -0.2626
     10 H          10.5811   43.2945    5.7050 H       1  UNL1        0.1903
     11 C           8.6876   39.2834    5.1060 C.2     1  UNL1        0.3609
     12 O           8.6960   38.6651    4.0066 O.2     1  UNL1       -0.2431
     13 O           7.7454   38.9720    6.0884 O.3     1  UNL1       -0.4444
     14 C           6.5201   40.5705    7.3882 C.3     1  UNL1        0.0513
     15 C           6.5045   39.6556    6.1816 C.3     1  UNL1        0.2089
     16 C          14.7833   42.5389    7.4433 C.ar    1  UNL1        0.1392
     17 C          15.5188   43.5297    6.8030 C.ar    1  UNL1        0.1179
     18 C          16.8259   43.3596    7.2302 C.ar    1  UNL1        0.1282
     19 C          15.3269   40.6773    9.0343 C.3     1  UNL1        0.1539
     20 N          16.8630   42.3176    8.0859 N.ar    1  UNL1       -0.1673
     21 N          15.6381   41.8371    8.2145 N.ar    1  UNL1       -0.2441
     22 C          15.0660   44.6203    5.9228 C.2     1  UNL1        0.3412
     23 O          13.8435   44.5153    5.2710 O.3     1  UNL1       -0.4770
     24 O          15.7887   45.6285    5.7139 O.2     1  UNL1       -0.2450
     25 H          13.2965   43.7691    5.4185 H       1  UNL1        0.2954
@<TRIPOS>BOND
     1    14    15    1
     2    15    13    1
     3    11    13    1
     4    11     5    1
     5     6     3    1
     6     1    16    1
     7    17    18   ar
     8    17    22    1
     9    19    21    1
    10    22    23    1
    11     7     5   ar
    12     9     8   ar
    13     9     6   ar
    14     3     1   am
    15    21    20   ar
    16    21    16   ar
    17    11    12    2
    18     5     8   ar
    19     6     7   ar
    20     1     2    2
    21    16    17   ar
    22    18    20   ar
    23    22    24    2
    24    23    25    1
    25     9    10    1
    26     3     4    1
@<TRIPOS>MOLECULE
MolPort-002-784-756 20616519 CSSS00160413342 MCULE-3638599793 ZINC000020616519
 25 26 0 0 0
SMALL
GASTEIGER

@<TRIPOS>ATOM
      1 C          10.3531   41.3364    6.1901 C.2     1  UNL1        0.2682
      2 O          10.5636   42.0109    5.1464 O.2     1  UNL1       -0.2681
      3 N          11.3981   41.1475    7.1510 N.am    1  UNL1       -0.2649
      4 H          11.1986   40.5839    7.9332 H       1  UNL1        0.1566
      5 C          14.3733   42.9720    6.5673 C.ar    1  UNL1        0.1787
      6 C          12.7092   41.7135    7.0634 C.ar    1  UNL1        0.1294
      7 C          13.0143   42.8470    6.3380 C.ar    1  UNL1        0.0613
      8 N          14.8227   41.9843    7.3653 N.ar    1  UNL1       -0.1650
      9 N          13.7980   41.2083    7.6713 N.ar    1  UNL1       -0.2626
     10 H          13.8261   40.4058    8.2410 H       1  UNL1        0.1903
     11 C          15.2278   44.0312    6.0218 C.2     1  UNL1        0.3609
     12 O          15.0862   44.3941    4.8221 O.2     1  UNL1       -0.2431
     13 O          16.1913   44.6305    6.8356 O.3     1  UNL1       -0.4444
     14 C          17.8588   43.6592    8.2576 C.3     1  UNL1        0.0513
     15 C          17.5347   44.1723    6.8701 C.3     1  UNL1        0.2089
     16 C           9.0351   40.6987    6.3925 C.ar    1  UNL1        0.1392
     17 C           8.4225   39.7296    5.6061 C.ar    1  UNL1        0.1179
     18 C           7.1737   39.5252    6.1706 C.ar    1  UNL1        0.1282
     19 C           8.3621   42.0294    8.4096 C.3     1  UNL1        0.1539
     20 N           7.0526   40.3340    7.2431 N.ar    1  UNL1       -0.1673
     21 N           8.1711   41.0265    7.3743 N.ar    1  UNL1       -0.2441
     22 C           8.9543   38.9678    4.4633 C.2     1  UNL1        0.3412
     23 O           9.6103   37.7633    4.6853 O.3     1  UNL1       -0.4770
     24 O           8.8652   39.4113    3.2895 O.2     1  UNL1       -0.2450
     25 H           9.6831   37.4229    5.5552 H       1  UNL1        0.2954
@<TRIPOS>BOND
     1    14    15    1
     2    15    13    1
     3    11    13    1
     4    11     5    1
     5     6     3    1
     6     1    16    1
     7    17    18   ar
     8    17    22    1
     9    19    21    1
    10    22    23    1
    11     7     5   ar
    12     9     8   ar
    13     9     6   ar
    14     3     1   am
    15    21    20   ar
    16    21    16   ar
    17    11    12    2
    18     5     8   ar
    19     6     7   ar
    20     1     2    2
    21    16    17   ar
    22    18    20   ar
    23    22    24    2
    24    23    25    1
    25     9    10    1
    26     3     4    1
@<TRIPOS>MOLECULE
MolPort-002-784-756 20616519 CSSS00160413342 MCULE-3638599793 ZINC000020616519
 25 26 0 0 0
SMALL
GASTEIGER

@<TRIPOS>ATOM
      1 C          13.7739   42.5356    6.8971 C.2     1  UNL1        0.2682
      2 O          13.3018   43.6691    6.6127 O.2     1  UNL1       -0.2681
      3 N          12.9650   41.3616    6.7615 N.am    1  UNL1       -0.2649
      4 H          13.3642   40.5023    7.0290 H       1  UNL1        0.1566
      5 C           9.4837   41.4198    6.1301 C.ar    1  UNL1        0.1787
      6 C          11.6223   41.3394    6.2677 C.ar    1  UNL1        0.1294
      7 C          10.5067   41.5417    7.0541 C.ar    1  UNL1        0.0613
      8 N           9.9699   41.1650    4.9001 N.ar    1  UNL1       -0.1650
      9 N          11.2876   41.1151    4.9840 N.ar    1  UNL1       -0.2626
     10 H          11.9114   40.9446    4.2417 H       1  UNL1        0.1903
     11 C           8.0544   41.5466    6.4311 C.2     1  UNL1        0.3609
     12 O           7.2003   41.1656    5.5848 O.2     1  UNL1       -0.2431
     13 O           7.6502   42.0877    7.6533 O.3     1  UNL1       -0.4444
     14 C           5.6687   41.2564    8.7155 C.3     1  UNL1        0.0513
     15 C           7.1830   41.2719    8.7173 C.3     1  UNL1        0.2089
     16 C          15.1524   42.4304    7.4200 C.ar    1  UNL1        0.1392
     17 C          15.6273   41.5900    8.4204 C.ar    1  UNL1        0.1179
     18 C          16.9589   41.9313    8.5941 C.ar    1  UNL1        0.1282
     19 C          16.1413   44.2760    6.0385 C.3     1  UNL1        0.1539
     20 N          17.2599   42.9264    7.7348 N.ar    1  UNL1       -0.1673
     21 N          16.1782   43.2142    7.0313 N.ar    1  UNL1       -0.2441
     22 C          14.9522   40.4865    9.1245 C.2     1  UNL1        0.3412
     23 O          15.5452   39.2307    9.1633 O.3     1  UNL1       -0.4770
     24 O          13.8230   40.6490    9.6545 O.2     1  UNL1       -0.2450
     25 H          16.3861   39.0973    8.7720 H       1  UNL1        0.2954
@<TRIPOS>BOND
     1    14    15    1
     2    15    13    1
     3    11    13    1
     4    11     5    1
     5     6     3    1
     6     1    16    1
     7    17    18   ar
     8    17    22    1
     9    19    21    1
    10    22    23    1
    11     7     5   ar
    12     9     8   ar
    13     9     6   ar
    14     3     1   am
    15    21    20   ar
    16    21    16   ar
    17    11    12    2
    18     5     8   ar
    19     6     7   ar
    20     1     2    2
    21    16    17   ar
    22    18    20   ar
    23    22    24    2
    24    23    25    1
    25     9    10    1
    26     3     4    1
@<TRIPOS>MOLECULE
MolPort-002-784-756 20616519 CSSS00160413342 MCULE-3638599793 ZINC000020616519
 25 26 0 0 0
SMALL
GASTEIGER

@<TRIPOS>ATOM
      1 C          13.8803   42.2210    6.7422 C.2     1  UNL1        0.2682
      2 O          13.6845   43.0497    5.8131 O.2     1  UNL1       -0.2681
      3 N          12.8394   41.3205    7.1381 N.am    1  UNL1       -0.2649
      4 H          13.0256   40.7154    7.8920 H       1  UNL1        0.1566
      5 C           9.6406   40.5237    5.8521 C.ar    1  UNL1        0.1787
      6 C          11.5502   41.2314    6.5240 C.ar    1  UNL1        0.1294
      7 C          10.7411   40.1153    6.5849 C.ar    1  UNL1        0.0613
      8 N           9.8000   41.7822    5.3993 N.ar    1  UNL1       -0.1650
      9 N          10.9766   42.2190    5.8128 N.ar    1  UNL1       -0.2626
     10 H          11.3633   43.1063    5.6330 H       1  UNL1        0.1903
     11 C           8.4502   39.7086    5.5910 C.2     1  UNL1        0.3609
     12 O           7.4364   39.8258    6.3324 O.2     1  UNL1       -0.2431
     13 O           8.4482   38.8093    4.5228 O.3     1  UNL1       -0.4444
     14 C          10.1509   37.6335    3.3129 C.3     1  UNL1        0.0513
     15 C           9.3660   38.9218    3.4454 C.3     1  UNL1        0.2089
     16 C          15.1748   42.2179    7.4555 C.ar    1  UNL1        0.1392
     17 C          16.2929   43.0052    7.2049 C.ar    1  UNL1        0.1179
     18 C          17.2649   42.5660    8.0894 C.ar    1  UNL1        0.1282
     19 C          14.6526   40.3290    9.0213 C.3     1  UNL1        0.1539
     20 N          16.7462   41.5661    8.8314 N.ar    1  UNL1       -0.1673
     21 N          15.4951   41.3687    8.4526 N.ar    1  UNL1       -0.2441
     22 C          16.4583   44.1427    6.2841 C.2     1  UNL1        0.3412
     23 O          15.5766   45.2145    6.3498 O.3     1  UNL1       -0.4770
     24 O          17.3587   44.1413    5.4056 O.2     1  UNL1       -0.2450
     25 H          14.9018   45.2268    6.9998 H       1  UNL1        0.2954
@<TRIPOS>BOND
     1    14    15    1
     2    15    13    1
     3    11    13    1
     4    11     5    1
     5     6     3    1
     6     1    16    1
     7    17    18   ar
     8    17    22    1
     9    19    21    1
    10    22    23    1
    11     7     5   ar
    12     9     8   ar
    13     9     6   ar
    14     3     1   am
    15    21    20   ar
    16    21    16   ar
    17    11    12    2
    18     5     8   ar
    19     6     7   ar
    20     1     2    2
    21    16    17   ar
    22    18    20   ar
    23    22    24    2
    24    23    25    1
    25     9    10    1
    26     3     4    1
@<TRIPOS>MOLECULE
MolPort-002-784-756 20616519 CSSS00160413342 MCULE-3638599793 ZINC000020616519
 25 26 0 0 0
SMALL
GASTEIGER

@<TRIPOS>ATOM
      1 C          13.8681   42.3462    6.6432 C.2     1  UNL1        0.2682
      2 O          13.7442   43.0403    5.5985 O.2     1  UNL1       -0.2681
      3 N          12.7500   41.6179    7.1632 N.am    1  UNL1       -0.2649
      4 H          12.8840   41.1183    8.0009 H       1  UNL1        0.1566
      5 C           9.3327   41.5988    6.2446 C.ar    1  UNL1        0.1787
      6 C          11.4535   41.5593    6.5608 C.ar    1  UNL1        0.1294
      7 C          10.2734   41.7630    7.2463 C.ar    1  UNL1        0.0613
      8 N           9.9233   41.3199    5.0666 N.ar    1  UNL1       -0.1650
      9 N          11.2301   41.2951    5.2606 N.ar    1  UNL1       -0.2626
     10 H          11.9160   41.1159    4.5775 H       1  UNL1        0.1903
     11 C           7.8816   41.7087    6.4227 C.2     1  UNL1        0.3609
     12 O           7.1058   41.1604    5.5930 O.2     1  UNL1       -0.2431
     13 O           7.3700   42.4192    7.5105 O.3     1  UNL1       -0.4444
     14 C           7.2885   44.4982    8.7009 C.3     1  UNL1        0.0513
     15 C           6.9834   43.7811    7.4025 C.3     1  UNL1        0.2089
     16 C          15.1619   42.3286    7.3576 C.ar    1  UNL1        0.1392
     17 C          16.2952   43.0904    7.0965 C.ar    1  UNL1        0.1179
     18 C          17.2580   42.6454    7.9881 C.ar    1  UNL1        0.1282
     19 C          14.6023   40.4732    8.9504 C.3     1  UNL1        0.1539
     20 N          16.7196   41.6667    8.7441 N.ar    1  UNL1       -0.1673
     21 N          15.4651   41.4880    8.3673 N.ar    1  UNL1       -0.2441
     22 C          16.4830   44.2109    6.1592 C.2     1  UNL1        0.3412
     23 O          15.5933   45.2779    6.1760 O.3     1  UNL1       -0.4770
     24 O          17.4108   44.1984    5.3099 O.2     1  UNL1       -0.2450
     25 H          14.8981   45.2985    6.8039 H       1  UNL1        0.2954
@<TRIPOS>BOND
     1    14    15    1
     2    15    13    1
     3    11    13    1
     4    11     5    1
     5     6     3    1
     6     1    16    1
     7    17    18   ar
     8    17    22    1
     9    19    21    1
    10    22    23    1
    11     7     5   ar
    12     9     8   ar
    13     9     6   ar
    14     3     1   am
    15    21    20   ar
    16    21    16   ar
    17    11    12    2
    18     5     8   ar
    19     6     7   ar
    20     1     2    2
    21    16    17   ar
    22    18    20   ar
    23    22    24    2
    24    23    25    1
    25     9    10    1
    26     3     4    1
@<TRIPOS>MOLECULE
MolPort-002-784-756 20616519 CSSS00160413342 MCULE-3638599793 ZINC000020616519
 25 26 0 0 0
SMALL
GASTEIGER

@<TRIPOS>ATOM
      1 C           6.5632   42.6852    9.0876 C.2     1  UNL1        0.2682
      2 O           6.9380   42.3497    7.9320 O.2     1  UNL1       -0.2681
      3 N           7.5286   43.0201   10.0911 N.am    1  UNL1       -0.2649
      4 H           7.1912   43.2414   10.9891 H       1  UNL1        0.1566
      5 C          10.9446   42.5891    9.2749 C.ar    1  UNL1        0.1787
      6 C           8.9447   43.0582    9.8910 C.ar    1  UNL1        0.1294
      7 C           9.6485   42.1156    9.1697 C.ar    1  UNL1        0.0613
      8 N          10.9891   43.7211   10.0035 N.ar    1  UNL1       -0.1650
      9 N           9.7572   44.0108   10.3837 N.ar    1  UNL1       -0.2626
     10 H           9.4834   44.7836   10.9287 H       1  UNL1        0.1903
     11 C          12.1258   41.9560    8.6804 C.2     1  UNL1        0.3609
     12 O          12.5858   42.3895    7.5888 O.2     1  UNL1       -0.2431
     13 O          12.7327   40.8780    9.3282 O.3     1  UNL1       -0.4444
     14 C          13.3323   39.5915   11.2599 C.3     1  UNL1        0.0513
     15 C          12.2368   40.3643   10.5554 C.3     1  UNL1        0.2089
     16 C           5.1221   42.6821    9.4163 C.ar    1  UNL1        0.1392
     17 C           4.4465   41.8470   10.2987 C.ar    1  UNL1        0.1179
     18 C           3.1088   42.1916   10.1891 C.ar    1  UNL1        0.1282
     19 C           4.4419   44.4837    7.8088 C.3     1  UNL1        0.1539
     20 N           2.9972   43.1864    9.2852 N.ar    1  UNL1       -0.1673
     21 N           4.2045   43.4796    8.8333 N.ar    1  UNL1       -0.2441
     22 C           4.9749   40.8532   11.2486 C.2     1  UNL1        0.3412
     23 O           4.2125   39.7375   11.5718 O.3     1  UNL1       -0.4770
     24 O           6.0885   41.0193   11.8096 O.2     1  UNL1       -0.2450
     25 H           3.3814   39.6030   11.1606 H       1  UNL1        0.2954
@<TRIPOS>BOND
     1    14    15    1
     2    15    13    1
     3    11    13    1
     4    11     5    1
     5     6     3    1
     6     1    16    1
     7    17    18   ar
     8    17    22    1
     9    19    21    1
    10    22    23    1
    11     7     5   ar
    12     9     8   ar
    13     9     6   ar
    14     3     1   am
    15    21    20   ar
    16    21    16   ar
    17    11    12    2
    18     5     8   ar
    19     6     7   ar
    20     1     2    2
    21    16    17   ar
    22    18    20   ar
    23    22    24    2
    24    23    25    1
    25     9    10    1
    26     3     4    1
@<TRIPOS>MOLECULE
MolPort-002-784-756 20616519 CSSS00160413342 MCULE-3638599793 ZINC000020616519
 25 26 0 0 0
SMALL
GASTEIGER

@<TRIPOS>ATOM
      1 C          10.0498   41.4259    7.6094 C.2     1  UNL1        0.2682
      2 O          10.3325   41.8271    8.7702 O.2     1  UNL1       -0.2681
      3 N          11.0569   41.3919    6.5917 N.am    1  UNL1       -0.2649
      4 H          10.7820   41.1052    5.6909 H       1  UNL1        0.1566
      5 C          14.4353   41.8573    7.5359 C.ar    1  UNL1        0.1787
      6 C          12.4311   41.7421    6.7814 C.ar    1  UNL1        0.1294
      7 C          13.2342   41.2108    7.7698 C.ar    1  UNL1        0.0613
      8 N          14.3357   42.7010    6.4907 N.ar    1  UNL1       -0.1650
      9 N          13.1010   42.6307    6.0252 N.ar    1  UNL1       -0.2626
     10 H          12.7372   43.1369    5.2632 H       1  UNL1        0.1903
     11 C          15.6636   41.6638    8.3126 C.2     1  UNL1        0.3609
     12 O          15.8728   40.5614    8.8889 O.2     1  UNL1       -0.2431
     13 O          16.5928   42.7019    8.4075 O.3     1  UNL1       -0.4444
     14 C          17.7818   43.9917    6.7740 C.3     1  UNL1        0.0513
     15 C          17.7691   42.7310    7.6129 C.3     1  UNL1        0.2089
     16 C           8.6597   41.0378    7.2905 C.ar    1  UNL1        0.1392
     17 C           8.1879   39.7923    6.8922 C.ar    1  UNL1        0.1179
     18 C           6.8367   39.9679    6.6400 C.ar    1  UNL1        0.1282
     19 C           7.6382   43.3110    7.5771 C.3     1  UNL1        0.1539
     20 N           6.5219   41.2573    6.8799 N.ar    1  UNL1       -0.1673
     21 N           7.6139   41.8887    7.2755 N.ar    1  UNL1       -0.2441
     22 C           8.8867   38.4978    6.8206 C.2     1  UNL1        0.3412
     23 O           9.3297   37.8900    7.9888 O.3     1  UNL1       -0.4770
     24 O           9.1308   37.9521    5.7138 O.2     1  UNL1       -0.2450
     25 H           9.1538   38.2869    8.8192 H       1  UNL1        0.2954
@<TRIPOS>BOND
     1    14    15    1
     2    15    13    1
     3    11    13    1
     4    11     5    1
     5     6     3    1
     6     1    16    1
     7    17    18   ar
     8    17    22    1
     9    19    21    1
    10    22    23    1
    11     7     5   ar
    12     9     8   ar
    13     9     6   ar
    14     3     1   am
    15    21    20   ar
    16    21    16   ar
    17    11    12    2
    18     5     8   ar
    19     6     7   ar
    20     1     2    2
    21    16    17   ar
    22    18    20   ar
    23    22    24    2
    24    23    25    1
    25     9    10    1
    26     3     4    1
@<TRIPOS>MOLECULE
MolPort-002-784-756 20616519 CSSS00160413342 MCULE-3638599793 ZINC000020616519
 25 26 0 0 0
SMALL
GASTEIGER

@<TRIPOS>ATOM
      1 C           6.4940   41.6254    9.7779 C.2     1  UNL1        0.2682
      2 O           6.9718   40.8148    8.9395 O.2     1  UNL1       -0.2681
      3 N           7.2616   42.0180   10.9215 N.am    1  UNL1       -0.2649
      4 H           6.8343   42.6252   11.5679 H       1  UNL1        0.1566
      5 C          10.5920   40.8250   11.0032 C.ar    1  UNL1        0.1787
      6 C           8.6007   41.5969   11.1982 C.ar    1  UNL1        0.1294
      7 C           9.4546   41.0667   10.2528 C.ar    1  UNL1        0.0613
      8 N          10.4108   41.1872   12.2878 N.ar    1  UNL1       -0.1650
      9 N           9.1839   41.6628   12.4089 N.ar    1  UNL1       -0.2626
     10 H           8.7714   42.0036   13.2353 H       1  UNL1        0.1903
     11 C          11.8380   40.2504   10.4867 C.2     1  UNL1        0.3609
     12 O          11.9478   39.9975    9.2558 O.2     1  UNL1       -0.2431
     13 O          12.8940   39.9884   11.3620 O.3     1  UNL1       -0.4444
     14 C          14.7601   38.5634   11.8445 C.3     1  UNL1        0.0513
     15 C          14.1736   39.5875   10.8955 C.3     1  UNL1        0.2089
     16 C           5.1161   42.1301    9.6006 C.ar    1  UNL1        0.1392
     17 C           4.7015   43.2659    8.9143 C.ar    1  UNL1        0.1179
     18 C           3.3319   43.3416    9.1105 C.ar    1  UNL1        0.1282
     19 C           3.9750   40.3935   11.0058 C.3     1  UNL1        0.1539
     20 N           2.9521   42.2979    9.8757 N.ar    1  UNL1       -0.1673
     21 N           4.0217   41.5742   10.1583 N.ar    1  UNL1       -0.2441
     22 C           5.4724   44.1864    8.0614 C.2     1  UNL1        0.3412
     23 O           5.5433   43.9590    6.6926 O.3     1  UNL1       -0.4770
     24 O           6.1075   45.1525    8.5571 O.2     1  UNL1       -0.2450
     25 H           5.0746   43.2426    6.3118 H       1  UNL1        0.2954
@<TRIPOS>BOND
     1    14    15    1
     2    15    13    1
     3    11    13    1
     4    11     5    1
     5     6     3    1
     6     1    16    1
     7    17    18   ar
     8    17    22    1
     9    19    21    1
    10    22    23    1
    11     7     5   ar
    12     9     8   ar
    13     9     6   ar
    14     3     1   am
    15    21    20   ar
    16    21    16   ar
    17    11    12    2
    18     5     8   ar
    19     6     7   ar
    20     1     2    2
    21    16    17   ar
    22    18    20   ar
    23    22    24    2
    24    23    25    1
    25     9    10    1
    26     3     4    1
