@<TRIPOS>MOLECULE
MolPort-051-589-860
 33 35 0 0 0
SMALL
GASTEIGER

@<TRIPOS>ATOM
      1 C          10.1731   40.4753    8.6926 C.2     1  UNL1        0.2803
      2 N          10.2400   40.7086    7.2834 N.am    1  UNL1       -0.2983
      3 O          10.8886   39.5825    9.2201 O.2     1  UNL1       -0.2668
      4 H           9.7164   41.4522    6.9063 H       1  UNL1        0.1498
      5 C          10.9920   42.8513   10.5143 C.3     1  UNL1        0.1322
      6 C           8.5417   42.8059   10.8883 C.ar    1  UNL1        0.1122
      7 C           7.4985   42.0275   10.4223 C.ar    1  UNL1        0.1559
      8 C           9.2702   41.2960    9.5199 C.ar    1  UNL1        0.1995
      9 N           9.6524   42.3270   10.3059 N.ar    1  UNL1       -0.3035
     10 N           7.9395   41.0827    9.5688 N.ar    1  UNL1       -0.2074
     11 C           5.1242   42.8500    9.9973 C.2     1  UNL1        0.4063
     12 N           6.1166   42.1683   10.7719 N.am    1  UNL1       -0.2338
     13 O           5.4277   43.3961    8.9012 O.2     1  UNL1       -0.2261
     14 H           5.8237   41.7607   11.6189 H       1  UNL1        0.1597
     15 O           3.8089   42.8998   10.4787 O.3     1  UNL1       -0.4417
     16 C           3.0163   41.7536   10.7977 C.3     1  UNL1        0.1378
     17 C           2.3557   41.1926    9.5501 C.3     1  UNL1        0.0437
     18 C           1.9565   42.1026   11.8284 C.3     1  UNL1        0.0437
     19 C           3.9189   40.6876   11.3816 C.3     1  UNL1        0.0437
     20 C          11.0449   39.8996    6.3793 C.3     1  UNL1        0.0916
     21 C          11.9920   40.7839    5.5828 C.3     1  UNL1        0.0432
     22 C          12.0143   42.2011    6.1347 C.3     1  UNL1        0.1033
     23 C          14.1753   43.6245    6.1392 C.2     1  UNL1        0.2551
     24 C          15.4873   43.5418    6.7706 C.ar    1  UNL1        0.0584
     25 C          16.6072   44.3611    6.6466 C.ar    1  UNL1        0.0047
     26 C          17.7518   44.0202    7.3889 C.ar    1  UNL1        0.0001
     27 C          17.7539   42.8836    8.2258 C.ar    1  UNL1        0.0001
     28 C          16.6115   42.0709    8.3329 C.ar    1  UNL1        0.0047
     29 C          15.4894   42.4298    7.5893 C.ar    1  UNL1        0.0584
     30 C          14.1787   41.7988    7.4832 C.2     1  UNL1        0.2551
     31 N          13.3532   42.5475    6.5918 N.am    1  UNL1       -0.2228
     32 O          13.8099   44.4982    5.3088 O.2     1  UNL1       -0.2695
     33 O          13.8185   40.7448    8.0707 O.2     1  UNL1       -0.2695
@<TRIPOS>BOND
     1     5     9    1
     2     7    12    1
     3     7    10   ar
     4    11    15    1
     5    16    15    1
     6    16    17    1
     7    16    18    1
     8    16    19    1
     9     8     1    1
    10     8     9   ar
    11     1     2   am
    12    20     2    1
    13    20    21    1
    14    21    22    1
    15    22    31    1
    16    23    24    1
    17    25    26   ar
    18    27    28   ar
    19    29    30    1
    20    29    24   ar
    21    30    31   am
    22     9     6   ar
    23    12    11   am
    24    31    23   am
    25     6     7   ar
    26    11    13    2
    27     8    10   ar
    28     1     3    2
    29    23    32    2
    30    24    25   ar
    31    26    27   ar
    32    28    29   ar
    33    30    33    2
    34    12    14    1
    35     2     4    1
@<TRIPOS>MOLECULE
MolPort-051-589-860
 33 35 0 0 0
SMALL
GASTEIGER

@<TRIPOS>ATOM
      1 C          13.3232   38.2736   10.8266 C.2     1  UNL1        0.2803
      2 N          12.2848   39.0360   10.2058 N.am    1  UNL1       -0.2983
      3 O          13.8810   38.6998   11.8728 O.2     1  UNL1       -0.2668
      4 H          11.8243   38.6518    9.4251 H       1  UNL1        0.1498
      5 C          11.6697   35.6469   10.8447 C.3     1  UNL1        0.1322
      6 C          13.6970   34.9079    9.6240 C.ar    1  UNL1        0.1122
      7 C          14.8741   35.5168    9.2300 C.ar    1  UNL1        0.1559
      8 C          13.7238   36.9829   10.2379 C.ar    1  UNL1        0.1995
      9 N          12.9844   35.8517   10.2592 N.ar    1  UNL1       -0.3035
     10 N          14.9030   36.8101    9.6069 N.ar    1  UNL1       -0.2074
     11 C          16.2029   35.0249    7.1119 C.2     1  UNL1        0.4063
     12 N          15.9488   34.8963    8.5149 N.am    1  UNL1       -0.2338
     13 O          15.4522   35.7318    6.3850 O.2     1  UNL1       -0.2261
     14 H          16.5668   34.3320    9.0336 H       1  UNL1        0.1597
     15 O          17.3010   34.3512    6.5602 O.3     1  UNL1       -0.4417
     16 C          17.4610   34.0600    5.1696 C.3     1  UNL1        0.1378
     17 C          18.7876   34.5944    4.6576 C.3     1  UNL1        0.0437
     18 C          16.3205   34.6540    4.3612 C.3     1  UNL1        0.0437
     19 C          17.4470   32.5575    4.9845 C.3     1  UNL1        0.0437
     20 C          11.8758   40.3531   10.6725 C.3     1  UNL1        0.0916
     21 C          12.0204   41.3759    9.5562 C.3     1  UNL1        0.0432
     22 C          12.5927   40.7392    8.2990 C.3     1  UNL1        0.1033
     23 C          15.1018   41.3612    8.4169 C.2     1  UNL1        0.2551
     24 C          15.9760   42.3316    7.7681 C.ar    1  UNL1        0.0584
     25 C          17.3274   42.6082    7.9631 C.ar    1  UNL1        0.0047
     26 C          17.9065   43.6222    7.1797 C.ar    1  UNL1        0.0001
     27 C          17.1343   44.3292    6.2332 C.ar    1  UNL1        0.0001
     28 C          15.7712   44.0330    6.0559 C.ar    1  UNL1        0.0047
     29 C          15.2204   43.0234    6.8422 C.ar    1  UNL1        0.0584
     30 C          13.8613   42.4969    6.8967 C.2     1  UNL1        0.2551
     31 N          13.7868   41.4524    7.8664 N.am    1  UNL1       -0.2228
     32 O          15.4356   40.5649    9.3340 O.2     1  UNL1       -0.2695
     33 O          12.8862   42.9012    6.2101 O.2     1  UNL1       -0.2695
@<TRIPOS>BOND
     1     5     9    1
     2     7    12    1
     3     7    10   ar
     4    11    15    1
     5    16    15    1
     6    16    17    1
     7    16    18    1
     8    16    19    1
     9     8     1    1
    10     8     9   ar
    11     1     2   am
    12    20     2    1
    13    20    21    1
    14    21    22    1
    15    22    31    1
    16    23    24    1
    17    25    26   ar
    18    27    28   ar
    19    29    30    1
    20    29    24   ar
    21    30    31   am
    22     9     6   ar
    23    12    11   am
    24    31    23   am
    25     6     7   ar
    26    11    13    2
    27     8    10   ar
    28     1     3    2
    29    23    32    2
    30    24    25   ar
    31    26    27   ar
    32    28    29   ar
    33    30    33    2
    34    12    14    1
    35     2     4    1
@<TRIPOS>MOLECULE
MolPort-051-589-860
 33 35 0 0 0
SMALL
GASTEIGER

@<TRIPOS>ATOM
      1 C           8.7304   41.6261    6.5266 C.2     1  UNL1        0.2803
      2 N           7.9821   42.6938    5.9394 N.am    1  UNL1       -0.2983
      3 O           8.1346   40.6922    7.1268 O.2     1  UNL1       -0.2668
      4 H           8.4675   43.3781    5.4242 H       1  UNL1        0.1498
      5 C          10.4259   39.8868    4.5942 C.3     1  UNL1        0.1322
      6 C          12.2099   41.1474    5.7665 C.ar    1  UNL1        0.1122
      7 C          12.2329   42.1074    6.7611 C.ar    1  UNL1        0.1559
      8 C          10.2000   41.6240    6.4118 C.ar    1  UNL1        0.1995
      9 N          10.9158   40.8557    5.5608 N.ar    1  UNL1       -0.3035
     10 N          10.9865   42.4128    7.1719 N.ar    1  UNL1       -0.2074
     11 C          14.3007   43.5894    6.6124 C.2     1  UNL1        0.4063
     12 N          13.4014   42.7242    7.3141 N.am    1  UNL1       -0.2338
     13 O          14.1038   43.8734    5.3990 O.2     1  UNL1       -0.2261
     14 H          13.6038   42.5369    8.2591 H       1  UNL1        0.1597
     15 O          15.4041   44.1154    7.2978 O.3     1  UNL1       -0.4417
     16 C          16.5995   43.3888    7.5928 C.3     1  UNL1        0.1378
     17 C          16.2743   41.9642    8.0079 C.3     1  UNL1        0.0437
     18 C          17.3899   44.0774    8.6921 C.3     1  UNL1        0.0437
     19 C          17.4569   43.3398    6.3460 C.3     1  UNL1        0.0437
     20 C           6.5370   42.8180    6.0667 C.3     1  UNL1        0.0916
     21 C           6.1871   43.9653    7.0019 C.3     1  UNL1        0.0432
     22 C           5.5102   43.4565    8.2655 C.3     1  UNL1        0.1033
     23 C           6.2950   41.9293   10.2015 C.2     1  UNL1        0.2551
     24 C           7.5164   41.7636   10.9808 C.ar    1  UNL1        0.0584
     25 C           7.7999   40.9242   12.0559 C.ar    1  UNL1        0.0047
     26 C           9.0876   40.9927   12.6167 C.ar    1  UNL1        0.0001
     27 C          10.0501   41.8865   12.1003 C.ar    1  UNL1        0.0001
     28 C           9.7395   42.7253   11.0154 C.ar    1  UNL1        0.0047
     29 C           8.4581   42.6382   10.4756 C.ar    1  UNL1        0.0584
     30 C           7.8410   43.3651    9.3720 C.2     1  UNL1        0.2551
     31 N           6.4985   42.9167    9.1894 N.am    1  UNL1       -0.2228
     32 O           5.2121   41.3132   10.3870 O.2     1  UNL1       -0.2695
     33 O           8.3903   44.2653    8.6838 O.2     1  UNL1       -0.2695
@<TRIPOS>BOND
     1     5     9    1
     2     7    12    1
     3     7    10   ar
     4    11    15    1
     5    16    15    1
     6    16    17    1
     7    16    18    1
     8    16    19    1
     9     8     1    1
    10     8     9   ar
    11     1     2   am
    12    20     2    1
    13    20    21    1
    14    21    22    1
    15    22    31    1
    16    23    24    1
    17    25    26   ar
    18    27    28   ar
    19    29    30    1
    20    29    24   ar
    21    30    31   am
    22     9     6   ar
    23    12    11   am
    24    31    23   am
    25     6     7   ar
    26    11    13    2
    27     8    10   ar
    28     1     3    2
    29    23    32    2
    30    24    25   ar
    31    26    27   ar
    32    28    29   ar
    33    30    33    2
    34    12    14    1
    35     2     4    1
@<TRIPOS>MOLECULE
MolPort-051-589-860
 33 35 0 0 0
SMALL
GASTEIGER

@<TRIPOS>ATOM
      1 C           9.5966   42.3040    8.5107 C.2     1  UNL1        0.2803
      2 N           8.9779   41.8747    7.2951 N.am    1  UNL1       -0.2983
      3 O           9.4031   43.4726    8.9400 O.2     1  UNL1       -0.2668
      4 H           9.0963   40.9385    7.0144 H       1  UNL1        0.1498
      5 C           9.2183   41.4204   11.4621 C.3     1  UNL1        0.1322
      6 C          11.2479   40.1342   10.8515 C.ar    1  UNL1        0.1122
      7 C          12.0158   40.0090    9.7087 C.ar    1  UNL1        0.1559
      8 C          10.4502   41.3638    9.2594 C.ar    1  UNL1        0.1995
      9 N          10.2639   40.9948   10.5462 N.ar    1  UNL1       -0.3035
     10 N          11.5292   40.7707    8.7094 N.ar    1  UNL1       -0.2074
     11 C          14.5083   39.6668    9.3027 C.2     1  UNL1        0.4063
     12 N          13.1824   39.1915    9.5592 N.am    1  UNL1       -0.2338
     13 O          14.7371   40.9022    9.1874 O.2     1  UNL1       -0.2261
     14 H          13.0619   38.2178    9.6398 H       1  UNL1        0.1597
     15 O          15.5479   38.7348    9.1821 O.3     1  UNL1       -0.4417
     16 C          16.4459   38.3780   10.2358 C.3     1  UNL1        0.1378
     17 C          17.3809   39.5308   10.5589 C.3     1  UNL1        0.0437
     18 C          17.2554   37.1490    9.8594 C.3     1  UNL1        0.0437
     19 C          15.6365   38.0570   11.4743 C.3     1  UNL1        0.0437
     20 C           8.1813   42.7552    6.4524 C.3     1  UNL1        0.0916
     21 C           7.3338   43.6814    7.3110 C.3     1  UNL1        0.0432
     22 C           5.8511   43.3959    7.1276 C.3     1  UNL1        0.1033
     23 C           5.6156   41.6482    9.0214 C.2     1  UNL1        0.2551
     24 C           4.7219   41.4405   10.1550 C.ar    1  UNL1        0.0584
     25 C           4.6658   40.4082   11.0889 C.ar    1  UNL1        0.0047
     26 C           3.6729   40.4787   12.0820 C.ar    1  UNL1        0.0001
     27 C           2.7691   41.5622   12.1196 C.ar    1  UNL1        0.0001
     28 C           2.8446   42.5914   11.1646 C.ar    1  UNL1        0.0047
     29 C           3.8377   42.5005   10.1917 C.ar    1  UNL1        0.0584
     30 C           4.1638   43.3885    9.0816 C.2     1  UNL1        0.2551
     31 N           5.2790   42.8683    8.3588 N.am    1  UNL1       -0.2228
     32 O           6.5404   40.8736    8.6593 O.2     1  UNL1       -0.2695
     33 O           3.5548   44.4495    8.7832 O.2     1  UNL1       -0.2695
@<TRIPOS>BOND
     1     5     9    1
     2     7    12    1
     3     7    10   ar
     4    11    15    1
     5    16    15    1
     6    16    17    1
     7    16    18    1
     8    16    19    1
     9     8     1    1
    10     8     9   ar
    11     1     2   am
    12    20     2    1
    13    20    21    1
    14    21    22    1
    15    22    31    1
    16    23    24    1
    17    25    26   ar
    18    27    28   ar
    19    29    30    1
    20    29    24   ar
    21    30    31   am
    22     9     6   ar
    23    12    11   am
    24    31    23   am
    25     6     7   ar
    26    11    13    2
    27     8    10   ar
    28     1     3    2
    29    23    32    2
    30    24    25   ar
    31    26    27   ar
    32    28    29   ar
    33    30    33    2
    34    12    14    1
    35     2     4    1
@<TRIPOS>MOLECULE
MolPort-051-589-860
 33 35 0 0 0
SMALL
GASTEIGER

@<TRIPOS>ATOM
      1 C          10.7006   40.6999    9.6053 C.2     1  UNL1        0.2803
      2 N          10.5535   41.5036   10.7788 N.am    1  UNL1       -0.2983
      3 O          10.0934   39.5999    9.5124 O.2     1  UNL1       -0.2668
      4 H          10.9899   42.3859   10.8001 H       1  UNL1        0.1498
      5 C           9.8032   41.2919    6.6936 C.3     1  UNL1        0.1322
      6 C          12.2173   41.8379    6.5527 C.ar    1  UNL1        0.1122
      7 C          13.2744   41.8211    7.4435 C.ar    1  UNL1        0.1559
      8 C          11.5578   41.1764    8.5048 C.ar    1  UNL1        0.1995
      9 N          11.1420   41.4271    7.2434 N.ar    1  UNL1       -0.3035
     10 N          12.8764   41.4103    8.6635 N.ar    1  UNL1       -0.2074
     11 C          15.7682   41.8733    7.9654 C.2     1  UNL1        0.4063
     12 N          14.6298   42.1828    7.1543 N.am    1  UNL1       -0.2338
     13 O          15.6345   41.2283    9.0414 O.2     1  UNL1       -0.2261
     14 H          14.7928   42.6883    6.3254 H       1  UNL1        0.1597
     15 O          17.0344   42.3000    7.5425 O.3     1  UNL1       -0.4417
     16 C          17.3234   43.6024    7.0284 C.3     1  UNL1        0.1378
     17 C          16.0927   44.4906    7.0915 C.3     1  UNL1        0.0437
     18 C          17.8232   43.5165    5.5966 C.3     1  UNL1        0.0437
     19 C          18.4092   44.2284    7.8775 C.3     1  UNL1        0.0437
     20 C           9.7895   41.0803   11.9437 C.3     1  UNL1        0.0916
     21 C           8.5297   41.9213   12.0816 C.3     1  UNL1        0.0432
     22 C           7.3041   41.1558   11.6070 C.3     1  UNL1        0.1033
     23 C           7.0899   42.7935    9.6149 C.2     1  UNL1        0.2551
     24 C           6.0009   43.4857    8.9354 C.ar    1  UNL1        0.0584
     25 C           6.0229   44.4028    7.8870 C.ar    1  UNL1        0.0047
     26 C           4.7916   44.9133    7.4393 C.ar    1  UNL1        0.0001
     27 C           3.5821   44.5042    8.0409 C.ar    1  UNL1        0.0001
     28 C           3.5858   43.5784    9.0992 C.ar    1  UNL1        0.0047
     29 C           4.8176   43.0854    9.5240 C.ar    1  UNL1        0.0584
     30 C           5.1473   42.1363   10.5814 C.2     1  UNL1        0.2551
     31 N           6.5601   41.9416   10.6319 N.am    1  UNL1       -0.2228
     32 O           8.3174   42.9247    9.3648 O.2     1  UNL1       -0.2695
     33 O           4.3237   41.5759   11.3517 O.2     1  UNL1       -0.2695
@<TRIPOS>BOND
     1     5     9    1
     2     7    12    1
     3     7    10   ar
     4    11    15    1
     5    16    15    1
     6    16    17    1
     7    16    18    1
     8    16    19    1
     9     8     1    1
    10     8     9   ar
    11     1     2   am
    12    20     2    1
    13    20    21    1
    14    21    22    1
    15    22    31    1
    16    23    24    1
    17    25    26   ar
    18    27    28   ar
    19    29    30    1
    20    29    24   ar
    21    30    31   am
    22     9     6   ar
    23    12    11   am
    24    31    23   am
    25     6     7   ar
    26    11    13    2
    27     8    10   ar
    28     1     3    2
    29    23    32    2
    30    24    25   ar
    31    26    27   ar
    32    28    29   ar
    33    30    33    2
    34    12    14    1
    35     2     4    1
@<TRIPOS>MOLECULE
MolPort-051-589-860
 33 35 0 0 0
SMALL
GASTEIGER

@<TRIPOS>ATOM
      1 C           8.5960   41.1185    6.1034 C.2     1  UNL1        0.2803
      2 N           8.0137   42.3529    6.5301 N.am    1  UNL1       -0.2983
      3 O           7.9156   40.2972    5.4326 O.2     1  UNL1       -0.2668
      4 H           8.5850   43.0027    6.9998 H       1  UNL1        0.1498
      5 C           9.6442   38.5927    7.5717 C.3     1  UNL1        0.1322
      6 C          11.7629   39.8275    7.2071 C.ar    1  UNL1        0.1122
      7 C          12.1004   41.0326    6.6195 C.ar    1  UNL1        0.1559
      8 C           9.9993   40.8240    6.4456 C.ar    1  UNL1        0.1995
      9 N          10.4306   39.7149    7.0865 N.ar    1  UNL1       -0.3035
     10 N          11.0099   41.6633    6.1413 N.ar    1  UNL1       -0.2074
     11 C          13.8609   42.8163    7.0812 C.2     1  UNL1        0.4063
     12 N          13.4195   41.5799    6.5101 N.am    1  UNL1       -0.2338
     13 O          13.0682   43.5342    7.7506 O.2     1  UNL1       -0.2261
     14 H          14.0803   41.0605    5.9975 H       1  UNL1        0.1597
     15 O          15.1897   43.2151    6.8831 O.3     1  UNL1       -0.4417
     16 C          15.6344   44.0618    5.8204 C.3     1  UNL1        0.1378
     17 C          15.3084   45.5151    6.1186 C.3     1  UNL1        0.0437
     18 C          14.9979   43.6514    4.5037 C.3     1  UNL1        0.0437
     19 C          17.1364   43.9257    5.6887 C.3     1  UNL1        0.0437
     20 C           6.6168   42.6952    6.3034 C.3     1  UNL1        0.0916
     21 C           6.3743   44.1612    6.6279 C.3     1  UNL1        0.0432
     22 C           6.7225   44.4675    8.0765 C.3     1  UNL1        0.1033
     23 C           6.4438   42.4933    9.7260 C.2     1  UNL1        0.2551
     24 C           5.3305   41.8374   10.4021 C.ar    1  UNL1        0.0584
     25 C           5.3066   40.7255   11.2412 C.ar    1  UNL1        0.0047
     26 C           4.0602   40.3149   11.7465 C.ar    1  UNL1        0.0001
     27 C           2.8813   41.0123   11.4063 C.ar    1  UNL1        0.0001
     28 C           2.9308   42.1308   10.5558 C.ar    1  UNL1        0.0047
     29 C           4.1771   42.5197   10.0693 C.ar    1  UNL1        0.0584
     30 C           4.5501   43.6136    9.1796 C.2     1  UNL1        0.2551
     31 N           5.9624   43.6087    8.9745 N.am    1  UNL1       -0.2228
     32 O           7.6507   42.1363    9.7757 O.2     1  UNL1       -0.2695
     33 O           3.7573   44.4373    8.6518 O.2     1  UNL1       -0.2695
@<TRIPOS>BOND
     1     5     9    1
     2     7    12    1
     3     7    10   ar
     4    11    15    1
     5    16    15    1
     6    16    17    1
     7    16    18    1
     8    16    19    1
     9     8     1    1
    10     8     9   ar
    11     1     2   am
    12    20     2    1
    13    20    21    1
    14    21    22    1
    15    22    31    1
    16    23    24    1
    17    25    26   ar
    18    27    28   ar
    19    29    30    1
    20    29    24   ar
    21    30    31   am
    22     9     6   ar
    23    12    11   am
    24    31    23   am
    25     6     7   ar
    26    11    13    2
    27     8    10   ar
    28     1     3    2
    29    23    32    2
    30    24    25   ar
    31    26    27   ar
    32    28    29   ar
    33    30    33    2
    34    12    14    1
    35     2     4    1
@<TRIPOS>MOLECULE
MolPort-051-589-860
 33 35 0 0 0
SMALL
GASTEIGER

@<TRIPOS>ATOM
      1 C          10.9694   39.2298    9.3699 C.2     1  UNL1        0.2803
      2 N          11.2067   37.8477    9.0903 N.am    1  UNL1       -0.2983
      3 O          10.6781   39.5971   10.5393 O.2     1  UNL1       -0.2668
      4 H          11.4922   37.5957    8.1824 H       1  UNL1        0.1498
      5 C           8.6245   40.4650    7.7544 C.3     1  UNL1        0.1322
      6 C          10.5606   41.5933    6.6939 C.ar    1  UNL1        0.1122
      7 C          11.9307   41.5552    6.8752 C.ar    1  UNL1        0.1559
      8 C          11.0809   40.2177    8.2814 C.ar    1  UNL1        0.1995
      9 N          10.0425   40.7410    7.5924 N.ar    1  UNL1       -0.3035
     10 N          12.2676   40.7013    7.8616 N.ar    1  UNL1       -0.2074
     11 C          14.2938   42.4127    6.4571 C.2     1  UNL1        0.4063
     12 N          12.9025   42.3048    6.1369 N.am    1  UNL1       -0.2338
     13 O          14.7692   41.8202    7.4644 O.2     1  UNL1       -0.2261
     14 H          12.5862   42.7881    5.3397 H       1  UNL1        0.1597
     15 O          15.1183   43.1885    5.6311 O.3     1  UNL1       -0.4417
     16 C          16.0522   44.1640    6.1005 C.3     1  UNL1        0.1378
     17 C          15.5573   45.5689    5.8028 C.3     1  UNL1        0.0437
     18 C          17.4154   43.9530    5.4647 C.3     1  UNL1        0.0437
     19 C          16.1955   44.0151    7.6003 C.3     1  UNL1        0.0437
     20 C          11.0466   36.7951   10.0834 C.3     1  UNL1        0.0916
     21 C          12.4035   36.2341   10.4801 C.3     1  UNL1        0.0432
     22 C          13.3335   36.1468    9.2797 C.3     1  UNL1        0.1033
     23 C          14.9316   38.0246   10.0647 C.2     1  UNL1        0.2551
     24 C          16.3758   38.2055   10.1574 C.ar    1  UNL1        0.0584
     25 C          17.1284   39.3084   10.5551 C.ar    1  UNL1        0.0047
     26 C          18.5290   39.1855   10.5345 C.ar    1  UNL1        0.0001
     27 C          19.1392   37.9818   10.1215 C.ar    1  UNL1        0.0001
     28 C          18.3581   36.8828    9.7227 C.ar    1  UNL1        0.0047
     29 C          16.9728   37.0278    9.7532 C.ar    1  UNL1        0.0584
     30 C          15.9118   36.0910    9.4011 C.2     1  UNL1        0.2551
     31 N          14.6393   36.7034    9.6068 N.am    1  UNL1       -0.2228
     32 O          14.0605   38.8943   10.3314 O.2     1  UNL1       -0.2695
     33 O          16.0763   34.9209    8.9659 O.2     1  UNL1       -0.2695
@<TRIPOS>BOND
     1     5     9    1
     2     7    12    1
     3     7    10   ar
     4    11    15    1
     5    16    15    1
     6    16    17    1
     7    16    18    1
     8    16    19    1
     9     8     1    1
    10     8     9   ar
    11     1     2   am
    12    20     2    1
    13    20    21    1
    14    21    22    1
    15    22    31    1
    16    23    24    1
    17    25    26   ar
    18    27    28   ar
    19    29    30    1
    20    29    24   ar
    21    30    31   am
    22     9     6   ar
    23    12    11   am
    24    31    23   am
    25     6     7   ar
    26    11    13    2
    27     8    10   ar
    28     1     3    2
    29    23    32    2
    30    24    25   ar
    31    26    27   ar
    32    28    29   ar
    33    30    33    2
    34    12    14    1
    35     2     4    1
@<TRIPOS>MOLECULE
MolPort-051-589-860
 33 35 0 0 0
SMALL
GASTEIGER

@<TRIPOS>ATOM
      1 C           6.8775   41.8220   10.1124 C.2     1  UNL1        0.2803
      2 N           7.9185   42.3972   10.9062 N.am    1  UNL1       -0.2983
      3 O           7.1623   41.1727    9.0709 O.2     1  UNL1       -0.2668
      4 H           7.6725   42.8469   11.7468 H       1  UNL1        0.1498
      5 C           4.6508   43.3165    8.5494 C.3     1  UNL1        0.1322
      6 C           3.3891   42.5675   10.5477 C.ar    1  UNL1        0.1122
      7 C           3.7032   41.8491   11.6864 C.ar    1  UNL1        0.1559
      8 C           5.4736   41.9864   10.5309 C.ar    1  UNL1        0.1995
      9 N           4.5217   42.6428    9.8310 N.ar    1  UNL1       -0.3035
     10 N           4.9994   41.4815   11.6880 N.ar    1  UNL1       -0.2074
     11 C           1.5251   42.1154   12.9823 C.2     1  UNL1        0.4063
     12 N           2.8043   41.5158   12.7506 N.am    1  UNL1       -0.2338
     13 O           1.0929   43.0225   12.2194 O.2     1  UNL1       -0.2261
     14 H           3.0913   40.8129   13.3774 H       1  UNL1        0.1597
     15 O           0.7614   41.6765   14.0723 O.3     1  UNL1       -0.4417
     16 C          -0.4079   42.3364   14.5638 C.3     1  UNL1        0.1378
     17 C          -1.6498   41.5066   14.2872 C.3     1  UNL1        0.0437
     18 C          -0.5556   43.7100   13.9323 C.3     1  UNL1        0.0437
     19 C          -0.2725   42.5103   16.0616 C.3     1  UNL1        0.0437
     20 C           9.3246   42.3501   10.5315 C.3     1  UNL1        0.0916
     21 C           9.9854   41.1130   11.1198 C.3     1  UNL1        0.0432
     22 C          10.3640   40.1221   10.0297 C.3     1  UNL1        0.1033
     23 C          12.8674   40.6266    9.6116 C.2     1  UNL1        0.2551
     24 C          13.6422   41.3361    8.6000 C.ar    1  UNL1        0.0584
     25 C          15.0098   41.5880    8.5160 C.ar    1  UNL1        0.0047
     26 C          15.4730   42.3169    7.4063 C.ar    1  UNL1        0.0001
     27 C          14.5732   42.7736    6.4195 C.ar    1  UNL1        0.0001
     28 C          13.1967   42.5083    6.5274 C.ar    1  UNL1        0.0047
     29 C          12.7618   41.7829    7.6345 C.ar    1  UNL1        0.0584
     30 C          11.4220   41.3602    8.0265 C.2     1  UNL1        0.2551
     31 N          11.4854   40.6282    9.2499 N.am    1  UNL1       -0.2228
     32 O          13.3285   40.0981   10.6577 O.2     1  UNL1       -0.2695
     33 O          10.3583   41.6079    7.3998 O.2     1  UNL1       -0.2695
@<TRIPOS>BOND
     1     5     9    1
     2     7    12    1
     3     7    10   ar
     4    11    15    1
     5    16    15    1
     6    16    17    1
     7    16    18    1
     8    16    19    1
     9     8     1    1
    10     8     9   ar
    11     1     2   am
    12    20     2    1
    13    20    21    1
    14    21    22    1
    15    22    31    1
    16    23    24    1
    17    25    26   ar
    18    27    28   ar
    19    29    30    1
    20    29    24   ar
    21    30    31   am
    22     9     6   ar
    23    12    11   am
    24    31    23   am
    25     6     7   ar
    26    11    13    2
    27     8    10   ar
    28     1     3    2
    29    23    32    2
    30    24    25   ar
    31    26    27   ar
    32    28    29   ar
    33    30    33    2
    34    12    14    1
    35     2     4    1
@<TRIPOS>MOLECULE
MolPort-051-589-860
 33 35 0 0 0
SMALL
GASTEIGER

@<TRIPOS>ATOM
      1 C           9.7366   40.2013    8.5821 C.2     1  UNL1        0.2803
      2 N           9.7526   41.1364    7.5004 N.am    1  UNL1       -0.2983
      3 O           8.6706   39.6007    8.8826 O.2     1  UNL1       -0.2668
      4 H          10.6116   41.5457    7.2477 H       1  UNL1        0.1498
      5 C          10.1316   38.0822   10.8154 C.3     1  UNL1        0.1322
      6 C          12.3953   39.0892   10.7288 C.ar    1  UNL1        0.1122
      7 C          12.9889   40.0912    9.9837 C.ar    1  UNL1        0.1559
      8 C          10.9791   39.9399    9.3310 C.ar    1  UNL1        0.1995
      9 N          11.1255   39.0097   10.3007 N.ar    1  UNL1       -0.3035
     10 N          12.1166   40.6294    9.1092 N.ar    1  UNL1       -0.2074
     11 C          15.4858   39.6917   10.3009 C.2     1  UNL1        0.4063
     12 N          14.3469   40.5337   10.0917 N.am    1  UNL1       -0.2338
     13 O          15.3500   38.4420   10.4080 O.2     1  UNL1       -0.2261
     14 H          14.5115   41.5013   10.0155 H       1  UNL1        0.1597
     15 O          16.7546   40.2809   10.3845 O.3     1  UNL1       -0.4417
     16 C          17.9865   39.5562   10.4199 C.3     1  UNL1        0.1378
     17 C          18.4091   39.1455    9.0199 C.3     1  UNL1        0.0437
     18 C          17.8612   38.3255   11.3014 C.3     1  UNL1        0.0437
     19 C          19.0596   40.4530   10.9999 C.3     1  UNL1        0.0437
     20 C           8.5600   41.5126    6.7548 C.3     1  UNL1        0.0916
     21 C           7.7782   42.5748    7.5122 C.3     1  UNL1        0.0432
     22 C           6.4950   42.9379    6.7806 C.3     1  UNL1        0.1033
     23 C           7.5613   43.8533    4.6077 C.2     1  UNL1        0.2551
     24 C           7.6497   45.1495    3.9452 C.ar    1  UNL1        0.0584
     25 C           8.3134   45.5300    2.7809 C.ar    1  UNL1        0.0047
     26 C           8.2206   46.8764    2.3861 C.ar    1  UNL1        0.0001
     27 C           7.4792   47.8010    3.1525 C.ar    1  UNL1        0.0001
     28 C           6.8194   47.3933    4.3253 C.ar    1  UNL1        0.0047
     29 C           6.9244   46.0541    4.6951 C.ar    1  UNL1        0.0584
     30 C           6.3704   45.3385    5.8389 C.2     1  UNL1        0.2551
     31 N           6.7534   43.9650    5.7806 N.am    1  UNL1       -0.2228
     32 O           8.1169   42.7897    4.2251 O.2     1  UNL1       -0.2695
     33 O           5.6706   45.8438    6.7559 O.2     1  UNL1       -0.2695
@<TRIPOS>BOND
     1     5     9    1
     2     7    12    1
     3     7    10   ar
     4    11    15    1
     5    16    15    1
     6    16    17    1
     7    16    18    1
     8    16    19    1
     9     8     1    1
    10     8     9   ar
    11     1     2   am
    12    20     2    1
    13    20    21    1
    14    21    22    1
    15    22    31    1
    16    23    24    1
    17    25    26   ar
    18    27    28   ar
    19    29    30    1
    20    29    24   ar
    21    30    31   am
    22     9     6   ar
    23    12    11   am
    24    31    23   am
    25     6     7   ar
    26    11    13    2
    27     8    10   ar
    28     1     3    2
    29    23    32    2
    30    24    25   ar
    31    26    27   ar
    32    28    29   ar
    33    30    33    2
    34    12    14    1
    35     2     4    1
@<TRIPOS>MOLECULE
MolPort-051-589-860
 33 35 0 0 0
SMALL
GASTEIGER

@<TRIPOS>ATOM
      1 C          11.0118   40.7654   10.6788 C.2     1  UNL1        0.2803
      2 N          11.0750   39.3397   10.5885 N.am    1  UNL1       -0.2983
      3 O          12.0681   41.4498   10.6216 O.2     1  UNL1       -0.2668
      4 H          10.2308   38.8333   10.5746 H       1  UNL1        0.1498
      5 C           9.3411   40.9798   13.2859 C.3     1  UNL1        0.1322
      6 C           7.8649   42.1740   11.6920 C.ar    1  UNL1        0.1122
      7 C           7.9316   42.4849   10.3465 C.ar    1  UNL1        0.1559
      8 C           9.7012   41.4236   10.8271 C.ar    1  UNL1        0.1995
      9 N           8.9928   41.5034   11.9754 N.ar    1  UNL1       -0.3035
     10 N           9.0712   42.0225    9.7960 N.ar    1  UNL1       -0.2074
     11 C           7.0531   44.5594    9.1554 C.2     1  UNL1        0.4063
     12 N           6.9453   43.2009    9.5942 N.am    1  UNL1       -0.2338
     13 O           8.0807   45.2412    9.4217 O.2     1  UNL1       -0.2261
     14 H           6.1213   42.7165    9.3581 H       1  UNL1        0.1597
     15 O           5.9961   45.1185    8.4245 O.3     1  UNL1       -0.4417
     16 C           4.9225   44.3715    7.8471 C.3     1  UNL1        0.1378
     17 C           4.2324   43.5209    8.8996 C.3     1  UNL1        0.0437
     18 C           5.4280   43.4865    6.7207 C.3     1  UNL1        0.0437
     19 C           3.9096   45.3410    7.2761 C.3     1  UNL1        0.0437
     20 C          12.3274   38.6007   10.5161 C.3     1  UNL1        0.0916
     21 C          13.4564   39.5193   10.0746 C.3     1  UNL1        0.0432
     22 C          13.8057   39.2955    8.6113 C.3     1  UNL1        0.1033
     23 C          15.4305   41.2774    8.2528 C.2     1  UNL1        0.2551
     24 C          15.4107   42.5318    7.5091 C.ar    1  UNL1        0.0584
     25 C          16.3475   43.5606    7.4401 C.ar    1  UNL1        0.0047
     26 C          16.0431   44.6683    6.6292 C.ar    1  UNL1        0.0001
     27 C          14.8263   44.7248    5.9163 C.ar    1  UNL1        0.0001
     28 C          13.8956   43.6744    6.0035 C.ar    1  UNL1        0.0047
     29 C          14.2202   42.5870    6.8117 C.ar    1  UNL1        0.0584
     30 C          13.4760   41.3681    7.1077 C.2     1  UNL1        0.2551
     31 N          14.2323   40.5439    7.9939 N.am    1  UNL1       -0.2228
     32 O          16.3501   40.8897    9.0213 O.2     1  UNL1       -0.2695
     33 O          12.3321   41.0780    6.6683 O.2     1  UNL1       -0.2695
@<TRIPOS>BOND
     1     5     9    1
     2     7    12    1
     3     7    10   ar
     4    11    15    1
     5    16    15    1
     6    16    17    1
     7    16    18    1
     8    16    19    1
     9     8     1    1
    10     8     9   ar
    11     1     2   am
    12    20     2    1
    13    20    21    1
    14    21    22    1
    15    22    31    1
    16    23    24    1
    17    25    26   ar
    18    27    28   ar
    19    29    30    1
    20    29    24   ar
    21    30    31   am
    22     9     6   ar
    23    12    11   am
    24    31    23   am
    25     6     7   ar
    26    11    13    2
    27     8    10   ar
    28     1     3    2
    29    23    32    2
    30    24    25   ar
    31    26    27   ar
    32    28    29   ar
    33    30    33    2
    34    12    14    1
    35     2     4    1
