@<TRIPOS>MOLECULE
Molport-047-891-076
 24 25 0 0 0
SMALL
GASTEIGER

@<TRIPOS>ATOM
      1 C          13.7298   42.9443    6.2252 C.ar    1  UNL1        0.1641
      2 C          13.8918   41.9498    7.1729 C.ar    1  UNL1        0.1630
      3 C          11.8803   41.9123    6.4923 C.ar    1  UNL1        0.2039
      4 CL         15.3574   41.5491    8.0508 Cl      1  UNL1       -0.0595
      5 N          12.7268   41.2950    7.3458 N.ar    1  UNL1       -0.2017
      6 N          12.4560   42.9141    5.7999 N.ar    1  UNL1       -0.3194
      7 H          12.0346   43.4975    5.1281 H       1  UNL1        0.1689
      8 C           9.9886   40.8264    5.2041 C.2     1  UNL1        0.4078
      9 O          10.7510   40.4787    4.2609 O.2     1  UNL1       -0.2260
     10 N          10.5017   41.5497    6.3300 N.am    1  UNL1       -0.2211
     11 H           9.8687   41.8142    7.0361 H       1  UNL1        0.1610
     12 O           8.6252   40.5137    5.1625 O.3     1  UNL1       -0.4294
     13 C           7.8683   40.1514    6.3157 C.3     1  UNL1        0.2367
     14 C           7.2553   41.3719    6.9468 C.ar    1  UNL1        0.0213
     15 C           6.9734   42.5007    6.1603 C.ar    1  UNL1       -0.0007
     16 C           6.4210   43.6454    6.7435 C.ar    1  UNL1       -0.0002
     17 C           6.1503   43.6719    8.1143 C.ar    1  UNL1       -0.0000
     18 C           6.4327   42.5541    8.9046 C.ar    1  UNL1       -0.0002
     19 C           6.9849   41.4072    8.3252 C.ar    1  UNL1       -0.0007
     20 C          14.7385   43.8950    5.7304 C.2     1  UNL1        0.3595
     21 O          14.9105   44.0521    4.4911 O.2     1  UNL1       -0.2432
     22 O          15.5079   44.6159    6.6507 O.3     1  UNL1       -0.4444
     23 C          17.6289   43.8000    5.7976 C.3     1  UNL1        0.0513
     24 C          16.8374   44.2536    7.0188 C.3     1  UNL1        0.2089
@<TRIPOS>BOND
     1    23    24    1
     2    24    22    1
     3    20    22    1
     4    20     1    1
     5     2     4    1
     6     2     5   ar
     7     3    10    1
     8     3     6   ar
     9     8    12    1
    10    13    12    1
    11    13    14    1
    12    15    16   ar
    13    17    18   ar
    14    19    14   ar
    15    10     8   am
    16     6     1   ar
    17    20    21    2
    18     1     2   ar
    19     3     5   ar
    20     8     9    2
    21    14    15   ar
    22    16    17   ar
    23    18    19   ar
    24    10    11    1
    25     6     7    1
@<TRIPOS>MOLECULE
Molport-047-891-076
 24 25 0 0 0
SMALL
GASTEIGER

@<TRIPOS>ATOM
      1 C          14.1152   41.4768    7.7156 C.ar    1  UNL1        0.1641
      2 C          14.4810   42.5224    6.8870 C.ar    1  UNL1        0.1630
      3 C          12.4355   42.0691    6.5388 C.ar    1  UNL1        0.2039
      4 CL         16.0570   43.2855    6.7742 Cl      1  UNL1       -0.0595
      5 N          13.4241   42.9003    6.1413 N.ar    1  UNL1       -0.2017
      6 N          12.8211   41.1962    7.4895 N.ar    1  UNL1       -0.3194
      7 H          12.2735   40.5032    7.9243 H       1  UNL1        0.1689
      8 C          10.2689   40.9425    5.8649 C.2     1  UNL1        0.4078
      9 O          10.6914   39.8000    6.1935 O.2     1  UNL1       -0.2260
     10 N          11.1028   42.0994    6.0085 N.am    1  UNL1       -0.2211
     11 H          10.7382   42.9690    5.7256 H       1  UNL1        0.1610
     12 O           8.9772   41.0969    5.3494 O.3     1  UNL1       -0.4294
     13 C           7.8136   40.5602    5.9757 C.3     1  UNL1        0.2367
     14 C           7.0881   41.6319    6.7430 C.ar    1  UNL1        0.0213
     15 C           7.0302   42.9399    6.2351 C.ar    1  UNL1       -0.0007
     16 C           6.3738   43.9454    6.9519 C.ar    1  UNL1       -0.0002
     17 C           5.7750   43.6528    8.1803 C.ar    1  UNL1       -0.0000
     18 C           5.8327   42.3544    8.6947 C.ar    1  UNL1       -0.0002
     19 C           6.4879   41.3460    7.9808 C.ar    1  UNL1       -0.0007
     20 C          14.9522   40.7613    8.6921 C.2     1  UNL1        0.3595
     21 O          16.1612   41.0829    8.8500 O.2     1  UNL1       -0.2432
     22 O          14.3926   39.7169    9.4369 O.3     1  UNL1       -0.4444
     23 C          14.1879   38.9108   11.7173 C.3     1  UNL1        0.0513
     24 C          13.7076   39.9115   10.6726 C.3     1  UNL1        0.2089
@<TRIPOS>BOND
     1    23    24    1
     2    24    22    1
     3    20    22    1
     4    20     1    1
     5     2     4    1
     6     2     5   ar
     7     3    10    1
     8     3     6   ar
     9     8    12    1
    10    13    12    1
    11    13    14    1
    12    15    16   ar
    13    17    18   ar
    14    19    14   ar
    15    10     8   am
    16     6     1   ar
    17    20    21    2
    18     1     2   ar
    19     3     5   ar
    20     8     9    2
    21    14    15   ar
    22    16    17   ar
    23    18    19   ar
    24    10    11    1
    25     6     7    1
@<TRIPOS>MOLECULE
Molport-047-891-076
 24 25 0 0 0
SMALL
GASTEIGER

@<TRIPOS>ATOM
      1 C          15.5746   42.4020    7.6647 C.ar    1  UNL1        0.1641
      2 C          15.3509   43.1751    6.5396 C.ar    1  UNL1        0.1630
      3 C          13.5428   42.1834    7.0475 C.ar    1  UNL1        0.2039
      4 CL         16.5097   44.1953    5.7056 Cl      1  UNL1       -0.0595
      5 N          14.0694   43.0408    6.1454 N.ar    1  UNL1       -0.2017
      6 N          14.4272   41.7785    7.9793 N.ar    1  UNL1       -0.3194
      7 H          14.2673   41.1598    8.7283 H       1  UNL1        0.1689
      8 C          11.3925   41.5047    8.2021 C.2     1  UNL1        0.4078
      9 O          11.8873   41.6698    9.3508 O.2     1  UNL1       -0.2260
     10 N          12.1793   41.7376    7.0269 N.am    1  UNL1       -0.2211
     11 H          11.7578   41.5820    6.1510 H       1  UNL1        0.1610
     12 O          10.0651   41.0859    8.0580 O.3     1  UNL1       -0.4294
     13 C           8.9652   41.9880    7.9543 C.3     1  UNL1        0.2367
     14 C           8.0127   41.7893    9.1019 C.ar    1  UNL1        0.0213
     15 C           8.4732   41.9081   10.4233 C.ar    1  UNL1       -0.0007
     16 C           7.5978   41.7062   11.4951 C.ar    1  UNL1       -0.0002
     17 C           6.2599   41.3814   11.2550 C.ar    1  UNL1       -0.0000
     18 C           5.7953   41.2566    9.9426 C.ar    1  UNL1       -0.0002
     19 C           6.6674   41.4579    8.8680 C.ar    1  UNL1       -0.0007
     20 C          16.8261   42.2519    8.4247 C.2     1  UNL1        0.3595
     21 O          17.4412   43.2695    8.8444 O.2     1  UNL1       -0.2432
     22 O          17.3275   40.9683    8.6692 O.3     1  UNL1       -0.4444
     23 C          16.0321   39.4760   10.0788 C.3     1  UNL1        0.0513
     24 C          17.2831   40.3371    9.9474 C.3     1  UNL1        0.2089
@<TRIPOS>BOND
     1    23    24    1
     2    24    22    1
     3    20    22    1
     4    20     1    1
     5     2     4    1
     6     2     5   ar
     7     3    10    1
     8     3     6   ar
     9     8    12    1
    10    13    12    1
    11    13    14    1
    12    15    16   ar
    13    17    18   ar
    14    19    14   ar
    15    10     8   am
    16     6     1   ar
    17    20    21    2
    18     1     2   ar
    19     3     5   ar
    20     8     9    2
    21    14    15   ar
    22    16    17   ar
    23    18    19   ar
    24    10    11    1
    25     6     7    1
@<TRIPOS>MOLECULE
Molport-047-891-076
 24 25 0 0 0
SMALL
GASTEIGER

@<TRIPOS>ATOM
      1 C           4.6309   42.1617   10.3988 C.ar    1  UNL1        0.1641
      2 C           5.0046   41.0429   11.1216 C.ar    1  UNL1        0.1630
      3 C           6.7534   42.1411   10.6256 C.ar    1  UNL1        0.2039
      4 CL          3.9508   39.8018   11.7762 Cl      1  UNL1       -0.0595
      5 N           6.3440   41.0247   11.2677 N.ar    1  UNL1       -0.2017
      6 N           5.7418   42.8505   10.0892 N.ar    1  UNL1       -0.3194
      7 H           5.8032   43.6912    9.5806 H       1  UNL1        0.1689
      8 C           9.0519   41.9911    9.5712 C.2     1  UNL1        0.4078
      9 O           8.6930   41.0795    8.7762 O.2     1  UNL1       -0.2260
     10 N           8.1262   42.5433   10.5158 N.am    1  UNL1       -0.2211
     11 H           8.4527   43.2423   11.1274 H       1  UNL1        0.1610
     12 O          10.3647   42.4748    9.5453 O.3     1  UNL1       -0.4294
     13 C          11.3462   42.0294    8.6112 C.3     1  UNL1        0.2367
     14 C          12.3950   41.2031    9.3048 C.ar    1  UNL1        0.0213
     15 C          13.6797   41.0912    8.7488 C.ar    1  UNL1       -0.0007
     16 C          14.6539   40.3097    9.3780 C.ar    1  UNL1       -0.0002
     17 C          14.3511   39.6328   10.5626 C.ar    1  UNL1       -0.0000
     18 C          13.0731   39.7353   11.1195 C.ar    1  UNL1       -0.0002
     19 C          12.0961   40.5161   10.4935 C.ar    1  UNL1       -0.0007
     20 C           3.2730   42.5753   10.0101 C.2     1  UNL1        0.3595
     21 O           3.0731   43.1387    8.8998 O.2     1  UNL1       -0.2432
     22 O           2.2094   42.3422   10.8894 O.3     1  UNL1       -0.4444
     23 C           0.9193   42.4949   12.9399 C.3     1  UNL1        0.0513
     24 C           2.3033   42.5197   12.3014 C.3     1  UNL1        0.2089
@<TRIPOS>BOND
     1    23    24    1
     2    24    22    1
     3    20    22    1
     4    20     1    1
     5     2     4    1
     6     2     5   ar
     7     3    10    1
     8     3     6   ar
     9     8    12    1
    10    13    12    1
    11    13    14    1
    12    15    16   ar
    13    17    18   ar
    14    19    14   ar
    15    10     8   am
    16     6     1   ar
    17    20    21    2
    18     1     2   ar
    19     3     5   ar
    20     8     9    2
    21    14    15   ar
    22    16    17   ar
    23    18    19   ar
    24    10    11    1
    25     6     7    1
@<TRIPOS>MOLECULE
Molport-047-891-076
 24 25 0 0 0
SMALL
GASTEIGER

@<TRIPOS>ATOM
      1 C          14.0485   41.7039    7.5291 C.ar    1  UNL1        0.1641
      2 C          14.0329   42.6170    6.4901 C.ar    1  UNL1        0.1630
      3 C          12.0703   41.8446    6.7391 C.ar    1  UNL1        0.2039
      4 CL         15.3882   43.5449    5.8725 Cl      1  UNL1       -0.0595
      5 N          12.7862   42.7097    5.9873 N.ar    1  UNL1       -0.2017
      6 N          12.8045   41.2202    7.6803 N.ar    1  UNL1       -0.3194
      7 H          12.4962   40.5541    8.3364 H       1  UNL1        0.1689
      8 C          10.1007   40.9614    5.4133 C.2     1  UNL1        0.4078
      9 O          10.8356   40.5833    4.4601 O.2     1  UNL1       -0.2260
     10 N          10.6672   41.6025    6.5632 N.am    1  UNL1       -0.2211
     11 H          10.0553   41.8949    7.2769 H       1  UNL1        0.1610
     12 O           8.7164   40.7639    5.3596 O.3     1  UNL1       -0.4294
     13 C           7.9359   40.3724    6.4874 C.3     1  UNL1        0.2367
     14 C           7.1943   41.5549    7.0491 C.ar    1  UNL1        0.0213
     15 C           6.6188   41.4779    8.3279 C.ar    1  UNL1       -0.0007
     16 C           5.9120   42.5664    8.8488 C.ar    1  UNL1       -0.0002
     17 C           5.7721   43.7356    8.0961 C.ar    1  UNL1       -0.0000
     18 C           6.3379   43.8180    6.8206 C.ar    1  UNL1       -0.0002
     19 C           7.0458   42.7318    6.2961 C.ar    1  UNL1       -0.0007
     20 C          15.1944   41.2964    8.3580 C.2     1  UNL1        0.3595
     21 O          15.3094   40.1004    8.7403 O.2     1  UNL1       -0.2432
     22 O          16.1493   42.2528    8.7216 O.3     1  UNL1       -0.4444
     23 C          18.0949   43.5757    8.1241 C.3     1  UNL1        0.0513
     24 C          17.5211   42.1797    8.3379 C.3     1  UNL1        0.2089
@<TRIPOS>BOND
     1    23    24    1
     2    24    22    1
     3    20    22    1
     4    20     1    1
     5     2     4    1
     6     2     5   ar
     7     3    10    1
     8     3     6   ar
     9     8    12    1
    10    13    12    1
    11    13    14    1
    12    15    16   ar
    13    17    18   ar
    14    19    14   ar
    15    10     8   am
    16     6     1   ar
    17    20    21    2
    18     1     2   ar
    19     3     5   ar
    20     8     9    2
    21    14    15   ar
    22    16    17   ar
    23    18    19   ar
    24    10    11    1
    25     6     7    1
@<TRIPOS>MOLECULE
Molport-047-891-076
 24 25 0 0 0
SMALL
GASTEIGER

@<TRIPOS>ATOM
      1 C          13.9135   41.7933    7.5545 C.ar    1  UNL1        0.1641
      2 C          13.5414   42.6096    6.5014 C.ar    1  UNL1        0.1630
      3 C          11.7873   41.7791    7.3640 C.ar    1  UNL1        0.2039
      4 CL         14.5994   43.5363    5.4521 Cl      1  UNL1       -0.0595
      5 N          12.1997   42.6042    6.3764 N.ar    1  UNL1       -0.2017
      6 N          12.7993   41.2722    8.0943 N.ar    1  UNL1       -0.3194
      7 H          12.7361   40.6541    8.8580 H       1  UNL1        0.1689
      8 C           9.4356   41.2341    6.5960 C.2     1  UNL1        0.4078
      9 O           9.7494   41.3218    5.3772 O.2     1  UNL1       -0.2260
     10 N          10.4117   41.4627    7.6204 N.am    1  UNL1       -0.2211
     11 H          10.1199   41.3987    8.5585 H       1  UNL1        0.1610
     12 O           8.1244   40.9156    6.9670 O.3     1  UNL1       -0.4294
     13 C           7.1455   41.8957    7.3063 C.3     1  UNL1        0.2367
     14 C           6.6061   41.6434    8.6880 C.ar    1  UNL1        0.0213
     15 C           5.2692   41.2481    8.8569 C.ar    1  UNL1       -0.0007
     16 C           4.7558   41.0301   10.1393 C.ar    1  UNL1       -0.0002
     17 C           5.5715   41.2087   11.2600 C.ar    1  UNL1       -0.0000
     18 C           6.9018   41.6068   11.1002 C.ar    1  UNL1       -0.0002
     19 C           7.4192   41.8256    9.8194 C.ar    1  UNL1       -0.0007
     20 C          15.2727   41.5099    8.0426 C.2     1  UNL1        0.3595
     21 O          15.4844   40.5221    8.7972 O.2     1  UNL1       -0.2432
     22 O          16.3241   42.3530    7.6653 O.3     1  UNL1       -0.4444
     23 C          18.0329   44.0593    7.9130 C.3     1  UNL1        0.0513
     24 C          17.2034   42.9790    8.5976 C.3     1  UNL1        0.2089
@<TRIPOS>BOND
     1    23    24    1
     2    24    22    1
     3    20    22    1
     4    20     1    1
     5     2     4    1
     6     2     5   ar
     7     3    10    1
     8     3     6   ar
     9     8    12    1
    10    13    12    1
    11    13    14    1
    12    15    16   ar
    13    17    18   ar
    14    19    14   ar
    15    10     8   am
    16     6     1   ar
    17    20    21    2
    18     1     2   ar
    19     3     5   ar
    20     8     9    2
    21    14    15   ar
    22    16    17   ar
    23    18    19   ar
    24    10    11    1
    25     6     7    1
@<TRIPOS>MOLECULE
Molport-047-891-076
 24 25 0 0 0
SMALL
GASTEIGER

@<TRIPOS>ATOM
      1 C           4.9699   42.3485   10.1314 C.ar    1  UNL1        0.1641
      2 C           4.9069   41.5577   11.2647 C.ar    1  UNL1        0.1630
      3 C           6.9282   41.6533   10.6198 C.ar    1  UNL1        0.2039
      4 CL          3.4773   41.1532   12.1983 Cl      1  UNL1       -0.0595
      5 N           6.1409   41.1158   11.5776 N.ar    1  UNL1       -0.2017
      6 N           6.2506   42.4040    9.7300 N.ar    1  UNL1       -0.3194
      7 H           6.6148   42.8882    8.9541 H       1  UNL1        0.1689
      8 C           9.1859   41.2100   11.6800 C.2     1  UNL1        0.4078
      9 O           8.7000   41.1801   12.8439 O.2     1  UNL1       -0.2260
     10 N           8.3467   41.4519   10.5435 N.am    1  UNL1       -0.2211
     11 H           8.7699   41.4817    9.6552 H       1  UNL1        0.1610
     12 O          10.5567   41.0111   11.4811 O.3     1  UNL1       -0.4294
     13 C          11.1283   40.7035   10.2111 C.3     1  UNL1        0.2367
     14 C          12.5558   40.2562   10.3718 C.ar    1  UNL1        0.0213
     15 C          13.5202   40.6368    9.4245 C.ar    1  UNL1       -0.0007
     16 C          14.8450   40.2091    9.5572 C.ar    1  UNL1       -0.0002
     17 C          15.2143   39.3969   10.6328 C.ar    1  UNL1       -0.0000
     18 C          14.2591   39.0099   11.5770 C.ar    1  UNL1       -0.0002
     19 C          12.9332   39.4356   11.4481 C.ar    1  UNL1       -0.0007
     20 C           3.8634   43.0339    9.4443 C.2     1  UNL1        0.3595
     21 O           2.7818   42.4266    9.2180 O.2     1  UNL1       -0.2432
     22 O           4.0290   44.3634    9.0397 O.3     1  UNL1       -0.4444
     23 C           5.6386   44.4921    7.2272 C.3     1  UNL1        0.0513
     24 C           4.2070   44.7551    7.6799 C.3     1  UNL1        0.2089
@<TRIPOS>BOND
     1    23    24    1
     2    24    22    1
     3    20    22    1
     4    20     1    1
     5     2     4    1
     6     2     5   ar
     7     3    10    1
     8     3     6   ar
     9     8    12    1
    10    13    12    1
    11    13    14    1
    12    15    16   ar
    13    17    18   ar
    14    19    14   ar
    15    10     8   am
    16     6     1   ar
    17    20    21    2
    18     1     2   ar
    19     3     5   ar
    20     8     9    2
    21    14    15   ar
    22    16    17   ar
    23    18    19   ar
    24    10    11    1
    25     6     7    1
@<TRIPOS>MOLECULE
Molport-047-891-076
 24 25 0 0 0
SMALL
GASTEIGER

@<TRIPOS>ATOM
      1 C          13.7676   40.4999    9.6590 C.ar    1  UNL1        0.1641
      2 C          13.2424   39.9296   10.8047 C.ar    1  UNL1        0.1630
      3 C          11.7110   41.0419    9.8414 C.ar    1  UNL1        0.2039
      4 CL         14.0801   38.9126   11.9636 Cl      1  UNL1       -0.0595
      5 N          11.9439   40.2687   10.9250 N.ar    1  UNL1       -0.2017
      6 N          12.7936   41.2012    9.0559 N.ar    1  UNL1       -0.3194
      7 H          12.8571   41.7192    8.2211 H       1  UNL1        0.1689
      8 C           9.6915   41.3853    8.3510 C.2     1  UNL1        0.4078
      9 O          10.1373   40.6042    7.4662 O.2     1  UNL1       -0.2260
     10 N          10.4423   41.6425    9.5445 N.am    1  UNL1       -0.2211
     11 H          10.0638   42.2704   10.2015 H       1  UNL1        0.1610
     12 O           8.4554   42.0178    8.1774 O.3     1  UNL1       -0.4294
     13 C           7.2101   41.4130    8.5204 C.3     1  UNL1        0.2367
     14 C           6.0995   42.4262    8.4600 C.ar    1  UNL1        0.0213
     15 C           6.2471   43.5817    7.6757 C.ar    1  UNL1       -0.0007
     16 C           5.2267   44.5368    7.6297 C.ar    1  UNL1       -0.0002
     17 C           4.0555   44.3466    8.3681 C.ar    1  UNL1       -0.0000
     18 C           3.9033   43.2014    9.1549 C.ar    1  UNL1       -0.0002
     19 C           4.9213   42.2437    9.2035 C.ar    1  UNL1       -0.0007
     20 C          15.1415   40.3908    9.1425 C.2     1  UNL1        0.3595
     21 O          15.7434   39.2830    9.1654 O.2     1  UNL1       -0.2432
     22 O          15.7727   41.5312    8.6329 O.3     1  UNL1       -0.4444
     23 C          17.4998   43.2012    8.2853 C.3     1  UNL1        0.0513
     24 C          17.1537   41.8231    8.8375 C.3     1  UNL1        0.2089
@<TRIPOS>BOND
     1    23    24    1
     2    24    22    1
     3    20    22    1
     4    20     1    1
     5     2     4    1
     6     2     5   ar
     7     3    10    1
     8     3     6   ar
     9     8    12    1
    10    13    12    1
    11    13    14    1
    12    15    16   ar
    13    17    18   ar
    14    19    14   ar
    15    10     8   am
    16     6     1   ar
    17    20    21    2
    18     1     2   ar
    19     3     5   ar
    20     8     9    2
    21    14    15   ar
    22    16    17   ar
    23    18    19   ar
    24    10    11    1
    25     6     7    1
@<TRIPOS>MOLECULE
Molport-047-891-076
 24 25 0 0 0
SMALL
GASTEIGER

@<TRIPOS>ATOM
      1 C           5.3117   42.4831   10.2165 C.ar    1  UNL1        0.1641
      2 C           5.0504   41.7246   11.3434 C.ar    1  UNL1        0.1630
      3 C           7.1176   41.5616   10.8845 C.ar    1  UNL1        0.2039
      4 CL          3.5039   41.5134   12.1453 Cl      1  UNL1       -0.0595
      5 N           6.1874   41.1402   11.7695 N.ar    1  UNL1       -0.2017
      6 N           6.6202   42.3749    9.9329 N.ar    1  UNL1       -0.3194
      7 H           7.1095   42.7981    9.1908 H       1  UNL1        0.1689
      8 C           9.5142   41.7277   10.0806 C.2     1  UNL1        0.4078
      9 O           9.2206   42.5759    9.1939 O.2     1  UNL1       -0.2260
     10 N           8.5015   41.1868   10.9385 N.am    1  UNL1       -0.2211
     11 H           8.7723   40.5163   11.6066 H       1  UNL1        0.1610
     12 O          10.8366   41.2977   10.2369 O.3     1  UNL1       -0.4294
     13 C          11.4852   40.4102    9.3282 C.3     1  UNL1        0.2367
     14 C          12.3129   39.4024   10.0784 C.ar    1  UNL1        0.0213
     15 C          12.0782   38.0295    9.8983 C.ar    1  UNL1       -0.0007
     16 C          12.8310   37.0874   10.6064 C.ar    1  UNL1       -0.0002
     17 C          13.8190   37.5092   11.5004 C.ar    1  UNL1       -0.0000
     18 C          14.0551   38.8740   11.6887 C.ar    1  UNL1       -0.0002
     19 C          13.3046   39.8194   10.9823 C.ar    1  UNL1       -0.0007
     20 C           4.3643   43.2875    9.4281 C.2     1  UNL1        0.3595
     21 O           4.7736   44.2685    8.7498 O.2     1  UNL1       -0.2432
     22 O           3.0050   42.9550    9.4463 O.3     1  UNL1       -0.4444
     23 C           2.9734   40.6643    8.6436 C.3     1  UNL1        0.0513
     24 C           2.5203   41.6422    9.7217 C.3     1  UNL1        0.2089
@<TRIPOS>BOND
     1    23    24    1
     2    24    22    1
     3    20    22    1
     4    20     1    1
     5     2     4    1
     6     2     5   ar
     7     3    10    1
     8     3     6   ar
     9     8    12    1
    10    13    12    1
    11    13    14    1
    12    15    16   ar
    13    17    18   ar
    14    19    14   ar
    15    10     8   am
    16     6     1   ar
    17    20    21    2
    18     1     2   ar
    19     3     5   ar
    20     8     9    2
    21    14    15   ar
    22    16    17   ar
    23    18    19   ar
    24    10    11    1
    25     6     7    1
@<TRIPOS>MOLECULE
Molport-047-891-076
 24 25 0 0 0
SMALL
GASTEIGER

@<TRIPOS>ATOM
      1 C           5.0079   43.1823    9.2452 C.ar    1  UNL1        0.1641
      2 C           5.1259   44.1486    8.2624 C.ar    1  UNL1        0.1630
      3 C           7.0633   43.4048    8.7137 C.ar    1  UNL1        0.2039
      4 CL          3.8318   45.0784    7.5276 Cl      1  UNL1       -0.0595
      5 N           6.4219   44.2935    7.9231 N.ar    1  UNL1       -0.2017
      6 N           6.2366   42.7170    9.5248 N.ar    1  UNL1       -0.3194
      7 H           6.4800   42.0239   10.1802 H       1  UNL1        0.1689
      8 C           9.1411   42.1531    7.9833 C.2     1  UNL1        0.4078
      9 O           8.4742   41.3154    7.3159 O.2     1  UNL1       -0.2260
     10 N           8.4838   43.2037    8.7033 N.am    1  UNL1       -0.2211
     11 H           9.0419   43.8262    9.2231 H       1  UNL1        0.1610
     12 O          10.5368   42.0657    8.0341 O.3     1  UNL1       -0.4294
     13 C          11.2637   40.8987    7.6547 C.3     1  UNL1        0.2367
     14 C          12.2460   40.5189    8.7293 C.ar    1  UNL1        0.0213
     15 C          11.7822   40.1249    9.9950 C.ar    1  UNL1       -0.0007
     16 C          12.6898   39.7887   11.0043 C.ar    1  UNL1       -0.0002
     17 C          14.0643   39.8470   10.7582 C.ar    1  UNL1       -0.0000
     18 C          14.5336   40.2429    9.5025 C.ar    1  UNL1       -0.0002
     19 C          13.6292   40.5798    8.4903 C.ar    1  UNL1       -0.0007
     20 C           3.7802   42.7066    9.9030 C.2     1  UNL1        0.3595
     21 O           2.7512   42.4506    9.2206 O.2     1  UNL1       -0.2432
     22 O           3.7669   42.5489   11.2936 O.3     1  UNL1       -0.4444
     23 C           4.0807   40.1432   11.3729 C.3     1  UNL1        0.0513
     24 C           3.3482   41.3513   11.9452 C.3     1  UNL1        0.2089
@<TRIPOS>BOND
     1    23    24    1
     2    24    22    1
     3    20    22    1
     4    20     1    1
     5     2     4    1
     6     2     5   ar
     7     3    10    1
     8     3     6   ar
     9     8    12    1
    10    13    12    1
    11    13    14    1
    12    15    16   ar
    13    17    18   ar
    14    19    14   ar
    15    10     8   am
    16     6     1   ar
    17    20    21    2
    18     1     2   ar
    19     3     5   ar
    20     8     9    2
    21    14    15   ar
    22    16    17   ar
    23    18    19   ar
    24    10    11    1
    25     6     7    1
