@<TRIPOS>MOLECULE
MolPort-020-292-520 MCULE-4285768089 PubChem-110264988
 32 35 0 0 0
SMALL
GASTEIGER

@<TRIPOS>ATOM
      1 C           9.5211   40.4312    8.8232 C.3     1  UNL1        0.0602
      2 C           9.1278   39.9429    7.4280 C.3     1  UNL1        0.0094
      3 C           7.6082   39.8551    7.3058 C.3     1  UNL1        0.0220
      4 C           6.9786   41.2155    7.5921 C.3     1  UNL1        0.0937
      5 C           8.8817   41.7886    9.1120 C.3     1  UNL1        0.0996
      6 C           6.5281   41.9041    9.9787 C.2     1  UNL1        0.2530
      7 N           7.4412   41.7074    8.8880 N.am    1  UNL1       -0.2756
      8 O           6.9424   41.7879   11.1638 O.2     1  UNL1       -0.2698
      9 C          13.6417   39.4365   11.3659 C.3     1  UNL1        0.0521
     10 C          12.9889   40.0353   10.1729 C.ar    1  UNL1        0.0602
     11 C          13.7635   40.6603    9.1942 C.ar    1  UNL1        0.0294
     12 C          13.1407   41.2223    8.0723 C.ar    1  UNL1        0.0528
     13 C          11.7508   41.1446    7.9563 C.ar    1  UNL1        0.0294
     14 C          11.0057   40.5120    8.9547 C.ar    1  UNL1        0.0611
     15 N          11.6377   39.9737   10.0352 N.ar    1  UNL1       -0.2538
     16 N          13.8835   41.8770    7.0341 N.pl3   1  UNL1       -0.2825
     17 H          13.5105   41.8143    6.1252 H       1  UNL1        0.1551
     18 C          15.1073   42.6123    7.1690 C.ar    1  UNL1        0.2207
     19 C          17.2510   42.8023    8.1539 C.ar    1  UNL1        0.1034
     20 C          17.4779   43.9903    7.4621 C.ar    1  UNL1        0.0414
     21 C          16.4760   44.4646    6.6180 C.ar    1  UNL1        0.1034
     22 N          16.0763   42.1379    7.9962 N.ar    1  UNL1       -0.2120
     23 N          15.3149   43.7720    6.4866 N.ar    1  UNL1       -0.2120
     24 C           5.1042   42.2251    9.7494 C.ar    1  UNL1        0.1031
     25 C           3.9816   41.6017   10.2625 C.ar    1  UNL1        0.1588
     26 C           4.5836   43.1847    8.9012 C.ar    1  UNL1        0.1042
     27 C           3.9377   40.4336   11.1852 C.3     1  UNL1        0.0755
     28 N           3.2361   43.1395    8.9445 N.ar    1  UNL1       -0.0816
     29 O           2.9139   42.1803    9.7642 O.2     1  UNL1       -0.3579
     30 C           5.3673   44.1632    8.0861 C.3     1  UNL1        0.0438
     31 C           4.4453   45.1901    7.4583 C.3     1  UNL1        0.0064
     32 C           6.4024   44.8585    8.9482 C.3     1  UNL1        0.0064
@<TRIPOS>BOND
     1     9    10    1
     2    10    15   ar
     3    11    12   ar
     4    12    16    1
     5    13    14   ar
     6     1    14    1
     7     1     2    1
     8     2     3    1
     9     3     4    1
    10     4     7    1
    11     5     7    1
    12     5     1    1
    13     6    24    1
    14    25    29   ar
    15    26    24   ar
    16    30    26    1
    17    30    31    1
    18    30    32    1
    19    27    25    1
    20    18    23   ar
    21    19    22   ar
    22    20    21   ar
    23     7     6   am
    24    16    18    1
    25    29    28   ar
    26    10    11   ar
    27    12    13   ar
    28    14    15   ar
    29     6     8    2
    30    24    25   ar
    31    26    28   ar
    32    18    22   ar
    33    19    20   ar
    34    21    23   ar
    35    16    17    1
@<TRIPOS>MOLECULE
MolPort-020-292-520 MCULE-4285768089 PubChem-110264988
 32 35 0 0 0
SMALL
GASTEIGER

@<TRIPOS>ATOM
      1 C           9.5481   40.6424    8.7663 C.3     1  UNL1        0.0602
      2 C           9.1395   39.9615    7.4590 C.3     1  UNL1        0.0094
      3 C           7.6202   39.9759    7.3058 C.3     1  UNL1        0.0220
      4 C           7.1018   41.4107    7.3448 C.3     1  UNL1        0.0937
      5 C           9.0195   42.0755    8.8080 C.3     1  UNL1        0.0996
      6 C           6.6692   42.5207    9.5705 C.2     1  UNL1        0.2530
      7 N           7.5814   42.0731    8.5558 N.am    1  UNL1       -0.2756
      8 O           7.0516   42.5709   10.7708 O.2     1  UNL1       -0.2698
      9 C          13.5410   39.3716   11.3883 C.3     1  UNL1        0.0521
     10 C          12.9537   40.0159   10.1851 C.ar    1  UNL1        0.0602
     11 C          13.7877   40.5923    9.2256 C.ar    1  UNL1        0.0294
     12 C          13.2264   41.1977    8.0937 C.ar    1  UNL1        0.0528
     13 C          11.8371   41.2115    7.9488 C.ar    1  UNL1        0.0294
     14 C          11.0317   40.6255    8.9287 C.ar    1  UNL1        0.0611
     15 N          11.6046   40.0433   10.0193 N.ar    1  UNL1       -0.2538
     16 N          14.0318   41.8060    7.0742 N.pl3   1  UNL1       -0.2825
     17 H          13.7247   41.6861    6.1465 H       1  UNL1        0.1551
     18 C          15.2332   42.5688    7.2518 C.ar    1  UNL1        0.2207
     19 C          17.3635   42.7749    8.2621 C.ar    1  UNL1        0.1034
     20 C          17.5613   43.9986    7.6258 C.ar    1  UNL1        0.0414
     21 C          16.5522   44.4818    6.7953 C.ar    1  UNL1        0.1034
     22 N          16.2095   42.0853    8.0652 N.ar    1  UNL1       -0.2120
     23 N          15.4123   43.7632    6.6235 N.ar    1  UNL1       -0.2120
     24 C           5.2813   42.9115    9.2475 C.ar    1  UNL1        0.1031
     25 C           4.8366   43.9437    8.4419 C.ar    1  UNL1        0.1588
     26 C           4.1146   42.3657    9.7496 C.ar    1  UNL1        0.1042
     27 C           5.6658   44.9291    7.6940 C.3     1  UNL1        0.0755
     28 N           3.0541   43.0250    9.2394 N.ar    1  UNL1       -0.0816
     29 O           3.5244   43.9619    8.4668 O.2     1  UNL1       -0.3579
     30 C           4.0128   41.1982   10.6784 C.3     1  UNL1        0.0438
     31 C           5.3864   40.7969   11.1793 C.3     1  UNL1        0.0064
     32 C           3.1142   41.5346   11.8521 C.3     1  UNL1        0.0064
@<TRIPOS>BOND
     1     9    10    1
     2    10    15   ar
     3    11    12   ar
     4    12    16    1
     5    13    14   ar
     6     1    14    1
     7     1     2    1
     8     2     3    1
     9     3     4    1
    10     4     7    1
    11     5     7    1
    12     5     1    1
    13     6    24    1
    14    25    29   ar
    15    26    24   ar
    16    30    26    1
    17    30    31    1
    18    30    32    1
    19    27    25    1
    20    18    23   ar
    21    19    22   ar
    22    20    21   ar
    23     7     6   am
    24    16    18    1
    25    29    28   ar
    26    10    11   ar
    27    12    13   ar
    28    14    15   ar
    29     6     8    2
    30    24    25   ar
    31    26    28   ar
    32    18    22   ar
    33    19    20   ar
    34    21    23   ar
    35    16    17    1
@<TRIPOS>MOLECULE
MolPort-020-292-520 MCULE-4285768089 PubChem-110264988
 32 35 0 0 0
SMALL
GASTEIGER

@<TRIPOS>ATOM
      1 C          12.4631   37.9703    8.7290 C.3     1  UNL1        0.0602
      2 C          11.9715   37.4402   10.0770 C.3     1  UNL1        0.0094
      3 C          12.5282   36.0412   10.3316 C.3     1  UNL1        0.0220
      4 C          14.0536   36.0677   10.2929 C.3     1  UNL1        0.0937
      5 C          13.9906   37.9864    8.6883 C.3     1  UNL1        0.0996
      6 C          15.2481   35.9017    8.0751 C.2     1  UNL1        0.2530
      7 N          14.5023   36.6641    9.0366 N.am    1  UNL1       -0.2756
      8 O          15.1599   36.1900    6.8509 O.2     1  UNL1       -0.2698
      9 C           9.2450   41.5607    9.8180 C.3     1  UNL1        0.0521
     10 C          10.3728   41.0633    8.9882 C.ar    1  UNL1        0.0602
     11 C          10.9073   41.8702    7.9824 C.ar    1  UNL1        0.0294
     12 C          11.9707   41.3943    7.2044 C.ar    1  UNL1        0.0528
     13 C          12.4759   40.1160    7.4531 C.ar    1  UNL1        0.0294
     14 C          11.9169   39.3345    8.4676 C.ar    1  UNL1        0.0611
     15 N          10.8834   39.8228    9.2092 N.ar    1  UNL1       -0.2538
     16 N          12.5613   42.1772    6.1573 N.pl3   1  UNL1       -0.2825
     17 H          12.1212   42.1317    5.2778 H       1  UNL1        0.1551
     18 C          13.7194   43.0184    6.2452 C.ar    1  UNL1        0.2207
     19 C          15.9023   43.3674    7.0906 C.ar    1  UNL1        0.1034
     20 C          15.9692   44.6004    6.4451 C.ar    1  UNL1        0.0414
     21 C          14.8698   45.0140    5.6957 C.ar    1  UNL1        0.1034
     22 N          14.7849   42.6023    6.9800 N.ar    1  UNL1       -0.2120
     23 N          13.7703   44.2210    5.6091 N.ar    1  UNL1       -0.2120
     24 C          16.1090   34.7715    8.4812 C.ar    1  UNL1        0.1031
     25 C          15.7744   33.4386    8.6347 C.ar    1  UNL1        0.1588
     26 C          17.4342   34.8207    8.8719 C.ar    1  UNL1        0.1042
     27 C          14.4402   32.8109    8.4256 C.3     1  UNL1        0.0755
     28 N          17.8514   33.5815    9.2033 N.ar    1  UNL1       -0.0816
     29 O          16.8327   32.7844    9.0530 O.2     1  UNL1       -0.3579
     30 C          18.3059   36.0356    8.8906 C.3     1  UNL1        0.0438
     31 C          18.4992   36.5286   10.3113 C.3     1  UNL1        0.0064
     32 C          19.6517   35.7289    8.2638 C.3     1  UNL1        0.0064
@<TRIPOS>BOND
     1     9    10    1
     2    10    15   ar
     3    11    12   ar
     4    12    16    1
     5    13    14   ar
     6     1    14    1
     7     1     2    1
     8     2     3    1
     9     3     4    1
    10     4     7    1
    11     5     7    1
    12     5     1    1
    13     6    24    1
    14    25    29   ar
    15    26    24   ar
    16    30    26    1
    17    30    31    1
    18    30    32    1
    19    27    25    1
    20    18    23   ar
    21    19    22   ar
    22    20    21   ar
    23     7     6   am
    24    16    18    1
    25    29    28   ar
    26    10    11   ar
    27    12    13   ar
    28    14    15   ar
    29     6     8    2
    30    24    25   ar
    31    26    28   ar
    32    18    22   ar
    33    19    20   ar
    34    21    23   ar
    35    16    17    1
@<TRIPOS>MOLECULE
MolPort-020-292-520 MCULE-4285768089 PubChem-110264988
 32 35 0 0 0
SMALL
GASTEIGER

@<TRIPOS>ATOM
      1 C          13.1016   41.7223    8.0803 C.3     1  UNL1        0.0602
      2 C          12.8823   40.8408    9.3110 C.3     1  UNL1        0.0094
      3 C          11.4043   40.4836    9.4510 C.3     1  UNL1        0.0220
      4 C          10.9138   39.7738    8.1921 C.3     1  UNL1        0.0937
      5 C          12.6006   41.0142    6.8223 C.3     1  UNL1        0.0996
      6 C          10.1711   41.1364    6.2010 C.2     1  UNL1        0.2530
      7 N          11.2175   40.5900    7.0187 N.am    1  UNL1       -0.2756
      8 O          10.3685   42.2152    5.5790 O.2     1  UNL1       -0.2698
      9 C          16.6179   44.5397    6.0478 C.3     1  UNL1        0.0521
     10 C          16.2363   43.4360    6.9666 C.ar    1  UNL1        0.0602
     11 C          17.2204   42.7550    7.6850 C.ar    1  UNL1        0.0294
     12 C          16.8526   41.7157    8.5494 C.ar    1  UNL1        0.0528
     13 C          15.5022   41.3815    8.6745 C.ar    1  UNL1        0.0294
     14 C          14.5430   42.0836    7.9402 C.ar    1  UNL1        0.0611
     15 N          14.9289   43.0904    7.1070 N.ar    1  UNL1       -0.2538
     16 N          17.8185   40.9801    9.3137 N.pl3   1  UNL1       -0.2825
     17 H          18.7091   41.3903    9.4014 H       1  UNL1        0.1551
     18 C          17.6349   39.7155    9.9647 C.ar    1  UNL1        0.2207
     19 C          18.4083   37.5124   10.3517 C.ar    1  UNL1        0.1034
     20 C          17.3256   37.2662   11.1935 C.ar    1  UNL1        0.0414
     21 C          16.4026   38.2897   11.3987 C.ar    1  UNL1        0.1034
     22 N          18.5433   38.7258    9.7554 N.ar    1  UNL1       -0.2120
     23 N          16.5718   39.4894   10.7846 N.ar    1  UNL1       -0.2120
     24 C           8.8559   40.4740    6.0799 C.ar    1  UNL1        0.1031
     25 C           8.5111   39.3613    5.3348 C.ar    1  UNL1        0.1588
     26 C           7.6560   40.8769    6.6360 C.ar    1  UNL1        0.1042
     27 C           9.3992   38.5496    4.4571 C.3     1  UNL1        0.0755
     28 N           6.6782   40.0277    6.2588 N.ar    1  UNL1       -0.0816
     29 O           7.2256   39.1392    5.4800 O.2     1  UNL1       -0.3579
     30 C           7.4530   42.0410    7.5524 C.3     1  UNL1        0.0438
     31 C           6.9945   43.2574    6.7720 C.3     1  UNL1        0.0064
     32 C           6.4331   41.6997    8.6209 C.3     1  UNL1        0.0064
@<TRIPOS>BOND
     1     9    10    1
     2    10    15   ar
     3    11    12   ar
     4    12    16    1
     5    13    14   ar
     6     1    14    1
     7     1     2    1
     8     2     3    1
     9     3     4    1
    10     4     7    1
    11     5     7    1
    12     5     1    1
    13     6    24    1
    14    25    29   ar
    15    26    24   ar
    16    30    26    1
    17    30    31    1
    18    30    32    1
    19    27    25    1
    20    18    23   ar
    21    19    22   ar
    22    20    21   ar
    23     7     6   am
    24    16    18    1
    25    29    28   ar
    26    10    11   ar
    27    12    13   ar
    28    14    15   ar
    29     6     8    2
    30    24    25   ar
    31    26    28   ar
    32    18    22   ar
    33    19    20   ar
    34    21    23   ar
    35    16    17    1
@<TRIPOS>MOLECULE
MolPort-020-292-520 MCULE-4285768089 PubChem-110264988
 32 35 0 0 0
SMALL
GASTEIGER

@<TRIPOS>ATOM
      1 C          13.2357   41.5066    8.2352 C.3     1  UNL1        0.0602
      2 C          13.1047   40.4556    9.3388 C.3     1  UNL1        0.0094
      3 C          11.6503   40.0119    9.4785 C.3     1  UNL1        0.0220
      4 C          11.1401   39.4581    8.1511 C.3     1  UNL1        0.0937
      5 C          12.7150   40.9539    6.9091 C.3     1  UNL1        0.0996
      6 C          10.2592   41.0428    6.3945 C.2     1  UNL1        0.2530
      7 N          11.3604   40.4408    7.0923 N.am    1  UNL1       -0.2756
      8 O          10.3847   42.2047    5.9214 O.2     1  UNL1       -0.2698
      9 C          16.5616   44.6315    6.3361 C.3     1  UNL1        0.0521
     10 C          16.2554   43.4528    7.1874 C.ar    1  UNL1        0.0602
     11 C          17.2869   42.7810    7.8455 C.ar    1  UNL1        0.0294
     12 C          16.9900   41.6707    8.6465 C.ar    1  UNL1        0.0528
     13 C          15.6614   41.2575    8.7701 C.ar    1  UNL1        0.0294
     14 C          14.6534   41.9526    8.0970 C.ar    1  UNL1        0.0611
     15 N          14.9707   43.0295    7.3249 N.ar    1  UNL1       -0.2538
     16 N          18.0069   40.9406    9.3473 N.pl3   1  UNL1       -0.2825
     17 H          18.8820   41.3838    9.4317 H       1  UNL1        0.1551
     18 C          17.8946   39.6390    9.9387 C.ar    1  UNL1        0.2207
     19 C          18.6927   37.4164   10.0952 C.ar    1  UNL1        0.1034
     20 C          17.7191   37.1200   11.0469 C.ar    1  UNL1        0.0414
     21 C          16.8360   38.1293   11.4247 C.ar    1  UNL1        0.1034
     22 N          18.7630   38.6635    9.5607 N.ar    1  UNL1       -0.2120
     23 N          16.9380   39.3640   10.8676 N.ar    1  UNL1       -0.2120
     24 C           8.9698   40.3407    6.2281 C.ar    1  UNL1        0.1031
     25 C           7.8886   40.2981    7.0892 C.ar    1  UNL1        0.1588
     26 C           8.5944   39.5036    5.1939 C.ar    1  UNL1        0.1042
     27 C           7.7630   40.9606    8.4170 C.3     1  UNL1        0.0755
     28 N           7.3540   39.0281    5.4282 N.ar    1  UNL1       -0.0816
     29 O           6.9672   39.5208    6.5699 O.2     1  UNL1       -0.3579
     30 C           9.3986   39.1922    3.9722 C.3     1  UNL1        0.0438
     31 C          10.7315   39.9134    4.0159 C.3     1  UNL1        0.0064
     32 C           9.6248   37.6976    3.8565 C.3     1  UNL1        0.0064
@<TRIPOS>BOND
     1     9    10    1
     2    10    15   ar
     3    11    12   ar
     4    12    16    1
     5    13    14   ar
     6     1    14    1
     7     1     2    1
     8     2     3    1
     9     3     4    1
    10     4     7    1
    11     5     7    1
    12     5     1    1
    13     6    24    1
    14    25    29   ar
    15    26    24   ar
    16    30    26    1
    17    30    31    1
    18    30    32    1
    19    27    25    1
    20    18    23   ar
    21    19    22   ar
    22    20    21   ar
    23     7     6   am
    24    16    18    1
    25    29    28   ar
    26    10    11   ar
    27    12    13   ar
    28    14    15   ar
    29     6     8    2
    30    24    25   ar
    31    26    28   ar
    32    18    22   ar
    33    19    20   ar
    34    21    23   ar
    35    16    17    1
@<TRIPOS>MOLECULE
MolPort-020-292-520 MCULE-4285768089 PubChem-110264988
 32 35 0 0 0
SMALL
GASTEIGER

@<TRIPOS>ATOM
      1 C          13.1281   39.4545    9.5511 C.3     1  UNL1        0.0602
      2 C          12.5769   38.1580   10.1469 C.3     1  UNL1        0.0094
      3 C          11.0702   38.0668    9.9162 C.3     1  UNL1        0.0220
      4 C          10.7618   38.1414    8.4234 C.3     1  UNL1        0.0937
      5 C          12.8095   39.5321    8.0586 C.3     1  UNL1        0.0996
      6 C          10.5771   40.3939    7.2988 C.2     1  UNL1        0.2530
      7 N          11.3769   39.3386    7.8544 N.am    1  UNL1       -0.2756
      8 O          11.0091   41.5782    7.3219 O.2     1  UNL1       -0.2698
      9 C          17.2898   37.5952   11.4635 C.3     1  UNL1        0.0521
     10 C          16.6024   38.6659   10.6960 C.ar    1  UNL1        0.0602
     11 C          17.3333   39.7461   10.1984 C.ar    1  UNL1        0.0294
     12 C          16.6781   40.7515    9.4755 C.ar    1  UNL1        0.0528
     13 C          15.3006   40.6509    9.2670 C.ar    1  UNL1        0.0294
     14 C          14.5996   39.5563    9.7794 C.ar    1  UNL1        0.0611
     15 N          15.2624   38.5927   10.4786 N.ar    1  UNL1       -0.2538
     16 N          17.3755   41.8849    8.9396 N.pl3   1  UNL1       -0.2825
     17 H          18.1934   42.1580    9.4145 H       1  UNL1        0.1551
     18 C          17.0173   42.6656    7.7912 C.ar    1  UNL1        0.2207
     19 C          15.3177   43.5868    6.4258 C.ar    1  UNL1        0.1034
     20 C          16.2780   44.1588    5.5938 C.ar    1  UNL1        0.0414
     21 C          17.6221   43.9569    5.9005 C.ar    1  UNL1        0.1034
     22 N          15.7019   42.8544    7.5038 N.ar    1  UNL1       -0.2120
     23 N          17.9668   43.2183    6.9871 N.ar    1  UNL1       -0.2120
     24 C           9.2470   40.1315    6.7113 C.ar    1  UNL1        0.1031
     25 C           7.9976   40.3809    7.2488 C.ar    1  UNL1        0.1588
     26 C           8.9652   39.5029    5.5127 C.ar    1  UNL1        0.1042
     27 C           7.6871   40.9833    8.5749 C.3     1  UNL1        0.0755
     28 N           7.6285   39.4209    5.3516 N.ar    1  UNL1       -0.0816
     29 O           7.0847   39.9514    6.4092 O.2     1  UNL1       -0.3579
     30 C           9.9652   39.0202    4.5111 C.3     1  UNL1        0.0438
     31 C           9.2643   38.4258    3.3052 C.3     1  UNL1        0.0064
     32 C          10.8662   40.1584    4.0744 C.3     1  UNL1        0.0064
@<TRIPOS>BOND
     1     9    10    1
     2    10    15   ar
     3    11    12   ar
     4    12    16    1
     5    13    14   ar
     6     1    14    1
     7     1     2    1
     8     2     3    1
     9     3     4    1
    10     4     7    1
    11     5     7    1
    12     5     1    1
    13     6    24    1
    14    25    29   ar
    15    26    24   ar
    16    30    26    1
    17    30    31    1
    18    30    32    1
    19    27    25    1
    20    18    23   ar
    21    19    22   ar
    22    20    21   ar
    23     7     6   am
    24    16    18    1
    25    29    28   ar
    26    10    11   ar
    27    12    13   ar
    28    14    15   ar
    29     6     8    2
    30    24    25   ar
    31    26    28   ar
    32    18    22   ar
    33    19    20   ar
    34    21    23   ar
    35    16    17    1
@<TRIPOS>MOLECULE
MolPort-020-292-520 MCULE-4285768089 PubChem-110264988
 32 35 0 0 0
SMALL
GASTEIGER

@<TRIPOS>ATOM
      1 C          13.1184   41.0049    8.4772 C.3     1  UNL1        0.0602
      2 C          12.9295   39.8064    9.4086 C.3     1  UNL1        0.0094
      3 C          11.4575   39.4041    9.4633 C.3     1  UNL1        0.0220
      4 C          10.9501   39.0759    8.0618 C.3     1  UNL1        0.0937
      5 C          12.6006   40.6780    7.0772 C.3     1  UNL1        0.0996
      6 C          10.1591   40.9392    6.5535 C.2     1  UNL1        0.2530
      7 N          11.2250   40.1967    7.1655 N.am    1  UNL1       -0.2756
      8 O          10.3356   42.1531    6.2620 O.2     1  UNL1       -0.2698
      9 C          16.6715   43.8941    6.6167 C.3     1  UNL1        0.0521
     10 C          16.2646   42.7978    7.5334 C.ar    1  UNL1        0.0602
     11 C          17.2198   42.1648    8.3306 C.ar    1  UNL1        0.0294
     12 C          16.8283   41.1321    9.1925 C.ar    1  UNL1        0.0528
     13 C          15.4837   40.7562    9.2360 C.ar    1  UNL1        0.0294
     14 C          14.5539   41.4107    8.4241 C.ar    1  UNL1        0.0611
     15 N          14.9624   42.4121    7.5953 N.ar    1  UNL1       -0.2538
     16 N          17.7638   40.4449   10.0356 N.pl3   1  UNL1       -0.2825
     17 H          18.2397   40.9957   10.6984 H       1  UNL1        0.1551
     18 C          18.0851   39.0473   10.0231 C.ar    1  UNL1        0.2207
     19 C          17.3597   36.8109    9.7517 C.ar    1  UNL1        0.1034
     20 C          18.6527   36.3490    9.9888 C.ar    1  UNL1        0.0414
     21 C          19.6521   37.2856   10.2438 C.ar    1  UNL1        0.1034
     22 N          17.0999   38.1444    9.7730 N.ar    1  UNL1       -0.2120
     23 N          19.3533   38.6107   10.2567 N.ar    1  UNL1       -0.2120
     24 C           8.8477   40.3210    6.2685 C.ar    1  UNL1        0.1031
     25 C           8.5287   39.3600    5.3268 C.ar    1  UNL1        0.1588
     26 C           7.6284   40.6314    6.8414 C.ar    1  UNL1        0.1042
     27 C           9.4478   38.7067    4.3539 C.3     1  UNL1        0.0755
     28 N           6.6634   39.8711    6.2843 N.ar    1  UNL1       -0.0816
     29 O           7.2380   39.1281    5.3823 O.2     1  UNL1       -0.3579
     30 C           7.3934   41.6182    7.9401 C.3     1  UNL1        0.0438
     31 C           5.9626   41.5319    8.4343 C.3     1  UNL1        0.0064
     32 C           8.3512   41.3675    9.0882 C.3     1  UNL1        0.0064
@<TRIPOS>BOND
     1     9    10    1
     2    10    15   ar
     3    11    12   ar
     4    12    16    1
     5    13    14   ar
     6     1    14    1
     7     1     2    1
     8     2     3    1
     9     3     4    1
    10     4     7    1
    11     5     7    1
    12     5     1    1
    13     6    24    1
    14    25    29   ar
    15    26    24   ar
    16    30    26    1
    17    30    31    1
    18    30    32    1
    19    27    25    1
    20    18    23   ar
    21    19    22   ar
    22    20    21   ar
    23     7     6   am
    24    16    18    1
    25    29    28   ar
    26    10    11   ar
    27    12    13   ar
    28    14    15   ar
    29     6     8    2
    30    24    25   ar
    31    26    28   ar
    32    18    22   ar
    33    19    20   ar
    34    21    23   ar
    35    16    17    1
@<TRIPOS>MOLECULE
MolPort-020-292-520 MCULE-4285768089 PubChem-110264988
 32 35 0 0 0
SMALL
GASTEIGER

@<TRIPOS>ATOM
      1 C          10.5175   41.8362    9.0454 C.3     1  UNL1        0.0602
      2 C          10.7272   42.9289   10.0951 C.3     1  UNL1        0.0094
      3 C           9.5702   43.9249   10.0623 C.3     1  UNL1        0.0220
      4 C           8.2477   43.2019   10.3017 C.3     1  UNL1        0.0937
      5 C           9.1881   41.1202    9.2806 C.3     1  UNL1        0.0996
      6 C           7.0628   42.0955    8.3666 C.2     1  UNL1        0.2530
      7 N           8.1100   42.1024    9.3491 N.am    1  UNL1       -0.2756
      8 O           7.2465   41.5054    7.2676 O.2     1  UNL1       -0.2698
      9 C          12.1495   37.1997    9.5672 C.3     1  UNL1        0.0521
     10 C          12.4372   38.6352    9.3135 C.ar    1  UNL1        0.0602
     11 C          13.7504   39.0553    9.0952 C.ar    1  UNL1        0.0294
     12 C          14.0135   40.4104    8.8564 C.ar    1  UNL1        0.0528
     13 C          12.9507   41.3167    8.8417 C.ar    1  UNL1        0.0294
     14 C          11.6484   40.8623    9.0644 C.ar    1  UNL1        0.0611
     15 N          11.4213   39.5385    9.2938 N.ar    1  UNL1       -0.2538
     16 N          15.3415   40.9014    8.6251 N.pl3   1  UNL1       -0.2825
     17 H          16.0777   40.3472    8.9717 H       1  UNL1        0.1551
     18 C          15.7192   42.1072    7.9470 C.ar    1  UNL1        0.2207
     19 C          15.2923   43.6745    6.2257 C.ar    1  UNL1        0.1034
     20 C          16.4049   44.4198    6.6105 C.ar    1  UNL1        0.0414
     21 C          17.1626   43.9667    7.6884 C.ar    1  UNL1        0.1034
     22 N          14.9708   42.5377    6.8968 N.ar    1  UNL1       -0.2120
     23 N          16.8092   42.8252    8.3343 N.ar    1  UNL1       -0.2120
     24 C           5.7738   42.7782    8.6025 C.ar    1  UNL1        0.1031
     25 C           5.3752   44.0401    8.2014 C.ar    1  UNL1        0.1588
     26 C           4.7040   42.3220    9.3499 C.ar    1  UNL1        0.1042
     27 C           6.1653   45.0333    7.4223 C.3     1  UNL1        0.0755
     28 N           3.7293   43.2545    9.3552 N.ar    1  UNL1       -0.0816
     29 O           4.1676   44.2667    8.6631 O.2     1  UNL1       -0.3579
     30 C           4.5981   40.9896   10.0205 C.3     1  UNL1        0.0438
     31 C           5.2654   41.0257   11.3814 C.3     1  UNL1        0.0064
     32 C           3.1439   40.5884   10.1700 C.3     1  UNL1        0.0064
@<TRIPOS>BOND
     1     9    10    1
     2    10    15   ar
     3    11    12   ar
     4    12    16    1
     5    13    14   ar
     6     1    14    1
     7     1     2    1
     8     2     3    1
     9     3     4    1
    10     4     7    1
    11     5     7    1
    12     5     1    1
    13     6    24    1
    14    25    29   ar
    15    26    24   ar
    16    30    26    1
    17    30    31    1
    18    30    32    1
    19    27    25    1
    20    18    23   ar
    21    19    22   ar
    22    20    21   ar
    23     7     6   am
    24    16    18    1
    25    29    28   ar
    26    10    11   ar
    27    12    13   ar
    28    14    15   ar
    29     6     8    2
    30    24    25   ar
    31    26    28   ar
    32    18    22   ar
    33    19    20   ar
    34    21    23   ar
    35    16    17    1
@<TRIPOS>MOLECULE
MolPort-020-292-520 MCULE-4285768089 PubChem-110264988
 32 35 0 0 0
SMALL
GASTEIGER

@<TRIPOS>ATOM
      1 C          12.5212   39.4174    9.4831 C.3     1  UNL1        0.0602
      2 C          12.1358   37.9696    9.7912 C.3     1  UNL1        0.0094
      3 C          10.6296   37.7762    9.6311 C.3     1  UNL1        0.0220
      4 C          10.1989   38.1534    8.2165 C.3     1  UNL1        0.0937
      5 C          12.0801   39.7965    8.0700 C.3     1  UNL1        0.0996
      6 C           9.7272   40.5699    7.6588 C.2     1  UNL1        0.2530
      7 N          10.6586   39.5057    7.9077 N.am    1  UNL1       -0.2756
      8 O          10.0531   41.7568    7.9322 O.2     1  UNL1       -0.2698
      9 C          16.8242   38.0286   11.4803 C.3     1  UNL1        0.0521
     10 C          16.0619   38.9535   10.6021 C.ar    1  UNL1        0.0602
     11 C          16.7223   39.9907    9.9413 C.ar    1  UNL1        0.0294
     12 C          15.9967   40.8584    9.1148 C.ar    1  UNL1        0.0528
     13 C          14.6209   40.6661    8.9688 C.ar    1  UNL1        0.0294
     14 C          13.9914   39.6180    9.6452 C.ar    1  UNL1        0.0611
     15 N          14.7218   38.7889   10.4424 N.ar    1  UNL1       -0.2538
     16 N          16.6199   41.9416    8.4102 N.pl3   1  UNL1       -0.2825
     17 H          17.5700   42.1032    8.6113 H       1  UNL1        0.1551
     18 C          16.0172   42.8158    7.4463 C.ar    1  UNL1        0.2207
     19 C          16.1430   44.8008    6.1636 C.ar    1  UNL1        0.1034
     20 C          14.8996   44.5287    5.5965 C.ar    1  UNL1        0.0414
     21 C          14.2349   43.3685    5.9882 C.ar    1  UNL1        0.1034
     22 N          16.6769   43.9446    7.0733 N.ar    1  UNL1       -0.2120
     23 N          14.8014   42.5369    6.9008 N.ar    1  UNL1       -0.2120
     24 C           8.3833   40.3097    7.1025 C.ar    1  UNL1        0.1031
     25 C           8.0424   39.7063    5.9059 C.ar    1  UNL1        0.1588
     26 C           7.1644   40.6873    7.6345 C.ar    1  UNL1        0.1042
     27 C           8.9658   39.1655    4.8701 C.3     1  UNL1        0.0755
     28 N           6.1728   40.2973    6.8074 N.ar    1  UNL1       -0.0816
     29 O           6.7354   39.7190    5.7852 O.2     1  UNL1       -0.3579
     30 C           6.9468   41.3802    8.9417 C.3     1  UNL1        0.0438
     31 C           7.0836   42.8811    8.7763 C.3     1  UNL1        0.0064
     32 C           5.5754   41.0454    9.4943 C.3     1  UNL1        0.0064
@<TRIPOS>BOND
     1     9    10    1
     2    10    15   ar
     3    11    12   ar
     4    12    16    1
     5    13    14   ar
     6     1    14    1
     7     1     2    1
     8     2     3    1
     9     3     4    1
    10     4     7    1
    11     5     7    1
    12     5     1    1
    13     6    24    1
    14    25    29   ar
    15    26    24   ar
    16    30    26    1
    17    30    31    1
    18    30    32    1
    19    27    25    1
    20    18    23   ar
    21    19    22   ar
    22    20    21   ar
    23     7     6   am
    24    16    18    1
    25    29    28   ar
    26    10    11   ar
    27    12    13   ar
    28    14    15   ar
    29     6     8    2
    30    24    25   ar
    31    26    28   ar
    32    18    22   ar
    33    19    20   ar
    34    21    23   ar
    35    16    17    1
@<TRIPOS>MOLECULE
MolPort-020-292-520 MCULE-4285768089 PubChem-110264988
 32 35 0 0 0
SMALL
GASTEIGER

@<TRIPOS>ATOM
      1 C          12.9131   39.6422   10.0351 C.3     1  UNL1        0.0602
      2 C          12.5350   38.2045    9.6750 C.3     1  UNL1        0.0094
      3 C          11.0238   38.0115    9.7796 C.3     1  UNL1        0.0220
      4 C          10.3036   38.9978    8.8644 C.3     1  UNL1        0.0937
      5 C          12.1832   40.6286    9.1245 C.3     1  UNL1        0.0996
      6 C           9.8403   41.3428    9.6761 C.2     1  UNL1        0.2530
      7 N          10.7491   40.3575    9.1609 N.am    1  UNL1       -0.2756
      8 O          10.2790   42.2667   10.4134 O.2     1  UNL1       -0.2698
      9 C          17.4848   38.3236   11.3747 C.3     1  UNL1        0.0521
     10 C          16.5891   39.2071   10.5841 C.ar    1  UNL1        0.0602
     11 C          17.1326   40.2015    9.7691 C.ar    1  UNL1        0.0294
     12 C          16.2815   41.0303    9.0265 C.ar    1  UNL1        0.0528
     13 C          14.9004   40.8428    9.1179 C.ar    1  UNL1        0.0294
     14 C          14.3900   39.8380    9.9438 C.ar    1  UNL1        0.0611
     15 N          15.2409   39.0461   10.6547 N.ar    1  UNL1       -0.2538
     16 N          16.7811   42.0687    8.1719 N.pl3   1  UNL1       -0.2825
     17 H          17.7548   42.2140    8.1858 H       1  UNL1        0.1551
     18 C          16.0245   42.9193    7.2998 C.ar    1  UNL1        0.2207
     19 C          14.0891   43.2463    5.9773 C.ar    1  UNL1        0.1034
     20 C          14.5330   44.5174    5.6187 C.ar    1  UNL1        0.0414
     21 C          15.7504   44.9608    6.1314 C.ar    1  UNL1        0.1034
     22 N          14.8383   42.4738    6.8068 N.ar    1  UNL1       -0.2120
     23 N          16.4711   44.1591    6.9580 N.ar    1  UNL1       -0.2120
     24 C           8.3940   41.2949    9.3776 C.ar    1  UNL1        0.1031
     25 C           7.3253   41.3904   10.2499 C.ar    1  UNL1        0.1588
     26 C           7.7943   41.0660    8.1532 C.ar    1  UNL1        0.1042
     27 C           7.3768   41.5657   11.7278 C.3     1  UNL1        0.0755
     28 N           6.4538   41.0601    8.3034 N.ar    1  UNL1       -0.0816
     29 O           6.2120   41.2528    9.5683 O.2     1  UNL1       -0.3579
     30 C           8.4955   40.8938    6.8436 C.3     1  UNL1        0.0438
     31 C           7.7236   39.9438    5.9490 C.3     1  UNL1        0.0064
     32 C           8.6597   42.2334    6.1530 C.3     1  UNL1        0.0064
@<TRIPOS>BOND
     1     9    10    1
     2    10    15   ar
     3    11    12   ar
     4    12    16    1
     5    13    14   ar
     6     1    14    1
     7     1     2    1
     8     2     3    1
     9     3     4    1
    10     4     7    1
    11     5     7    1
    12     5     1    1
    13     6    24    1
    14    25    29   ar
    15    26    24   ar
    16    30    26    1
    17    30    31    1
    18    30    32    1
    19    27    25    1
    20    18    23   ar
    21    19    22   ar
    22    20    21   ar
    23     7     6   am
    24    16    18    1
    25    29    28   ar
    26    10    11   ar
    27    12    13   ar
    28    14    15   ar
    29     6     8    2
    30    24    25   ar
    31    26    28   ar
    32    18    22   ar
    33    19    20   ar
    34    21    23   ar
    35    16    17    1
