@<TRIPOS>MOLECULE
MolPort-002-614-058 2421009 PubChem-1626256 ZINC000002421009 ZINC02421009
 28 31 0 0 0
SMALL
GASTEIGER

@<TRIPOS>ATOM
      1 C          12.9804   41.1585    9.1405 C.ar    1  UNL1        0.1571
      2 C          13.1146   39.7879    9.2998 C.ar    1  UNL1        0.0689
      3 C          14.0174   38.8405    8.8298 C.ar    1  UNL1        0.0074
      4 C          13.7763   37.5002    9.1782 C.ar    1  UNL1        0.0176
      5 C          14.6512   36.4995    8.7516 C.ar    1  UNL1        0.0015
      6 C          14.4103   35.1672    9.0956 C.ar    1  UNL1       -0.0002
      7 C          13.2938   34.8278    9.8657 C.ar    1  UNL1       -0.0028
      8 C          12.4036   35.8141   10.3021 C.ar    1  UNL1       -0.0042
      9 C          11.2240   35.4096   11.1193 C.3     1  UNL1        0.0326
     10 C          12.6315   37.1595    9.9663 C.ar    1  UNL1        0.0789
     11 C          12.0269   39.4254   10.0374 C.ar    1  UNL1        0.1620
     12 N          11.2687   40.5012   10.2974 N.ar    1  UNL1       -0.2329
     13 N          11.8385   41.5681    9.7464 N.ar    1  UNL1       -0.1527
     14 N          11.7662   38.1384   10.3766 N.ar    1  UNL1       -0.2271
     15 C          15.2481   42.0081    8.3320 C.2     1  UNL1        0.2521
     16 N          13.8161   42.0389    8.3795 N.am    1  UNL1       -0.2643
     17 O          15.9009   41.3815    9.2098 O.2     1  UNL1       -0.2697
     18 H          13.3654   42.7280    7.8398 H       1  UNL1        0.1566
     19 C          15.9626   42.7585    7.2850 C.ar    1  UNL1        0.0728
     20 C          15.2596   43.3892    6.2499 C.ar    1  UNL1        0.1034
     21 C          17.2834   44.1855    5.2976 C.ar    1  UNL1        0.0989
     22 C          18.0256   43.5741    6.3096 C.ar    1  UNL1        0.0208
     23 C          17.3588   42.8589    7.3055 C.ar    1  UNL1        0.0077
     24 N          15.9275   44.0816    5.2884 N.ar    1  UNL1       -0.2422
     25 C          10.0240   40.5250   11.0493 C.3     1  UNL1        0.1292
     26 C           9.4075   41.9128   10.9930 C.3     1  UNL1        0.0264
     27 C           7.0180   41.5001   11.5714 C.3     1  UNL1        0.0001
     28 C           7.9892   41.8410   10.4567 C.3     1  UNL1        0.0021
@<TRIPOS>BOND
     1    27    28    1
     2    28    26    1
     3    26    25    1
     4    25    12    1
     5     1    16    1
     6     1     2   ar
     7    15    19    1
     8    20    24   ar
     9    21    22   ar
    10    23    19   ar
    11     3     4   ar
    12     5     6   ar
    13     7     8   ar
    14     9     8    1
    15    10    14   ar
    16    10     4   ar
    17    11    12   ar
    18    11     2   ar
    19    12    13   ar
    20    16    15   am
    21     1    13   ar
    22    15    17    2
    23    19    20   ar
    24    21    24   ar
    25    22    23   ar
    26     2     3   ar
    27     4     5   ar
    28     6     7   ar
    29     8    10   ar
    30    11    14   ar
    31    16    18    1
@<TRIPOS>MOLECULE
MolPort-002-614-058 2421009 PubChem-1626256 ZINC000002421009 ZINC02421009
 28 31 0 0 0
SMALL
GASTEIGER

@<TRIPOS>ATOM
      1 C          11.8902   42.5822    8.5815 C.ar    1  UNL1        0.1571
      2 C          10.8571   41.8159    8.0643 C.ar    1  UNL1        0.0689
      3 C          10.7763   40.8282    7.0889 C.ar    1  UNL1        0.0074
      4 C           9.4990   40.3161    6.8024 C.ar    1  UNL1        0.0176
      5 C           9.3478   39.3125    5.8440 C.ar    1  UNL1        0.0015
      6 C           8.0781   38.8053    5.5572 C.ar    1  UNL1       -0.0002
      7 C           6.9534   39.2992    6.2250 C.ar    1  UNL1       -0.0028
      8 C           7.0820   40.3057    7.1874 C.ar    1  UNL1       -0.0042
      9 C           5.8573   40.8062    7.8747 C.3     1  UNL1        0.0326
     10 C           8.3519   40.8263    7.4892 C.ar    1  UNL1        0.0789
     11 C           9.7409   42.2878    8.6889 C.ar    1  UNL1        0.1620
     12 N          10.0682   43.2882    9.5207 N.ar    1  UNL1       -0.2329
     13 N          11.3814   43.4832    9.4579 N.ar    1  UNL1       -0.1527
     14 N           8.4969   41.8185    8.4218 N.ar    1  UNL1       -0.2271
     15 C          13.8242   43.0149    6.9719 C.2     1  UNL1        0.2521
     16 N          13.2741   42.5525    8.2119 N.am    1  UNL1       -0.2643
     17 O          13.0754   43.2099    5.9766 O.2     1  UNL1       -0.2697
     18 H          13.9048   42.1804    8.8699 H       1  UNL1        0.1566
     19 C          15.2785   43.2098    6.8432 C.ar    1  UNL1        0.0728
     20 C          15.8074   43.9900    5.8064 C.ar    1  UNL1        0.1034
     21 C          18.0187   43.5993    6.5775 C.ar    1  UNL1        0.0989
     22 C          17.5374   42.8143    7.6267 C.ar    1  UNL1        0.0208
     23 C          16.1612   42.6215    7.7569 C.ar    1  UNL1        0.0077
     24 N          17.1517   44.1662    5.6964 N.ar    1  UNL1       -0.2422
     25 C           9.1585   44.0529   10.3592 C.3     1  UNL1        0.1292
     26 C           8.4351   45.0975    9.5257 C.3     1  UNL1        0.0264
     27 C           6.8158   44.5592    7.7083 C.3     1  UNL1        0.0001
     28 C           7.0234   44.6379    9.2092 C.3     1  UNL1        0.0021
@<TRIPOS>BOND
     1    27    28    1
     2    28    26    1
     3    26    25    1
     4    25    12    1
     5     1    16    1
     6     1     2   ar
     7    15    19    1
     8    20    24   ar
     9    21    22   ar
    10    23    19   ar
    11     3     4   ar
    12     5     6   ar
    13     7     8   ar
    14     9     8    1
    15    10    14   ar
    16    10     4   ar
    17    11    12   ar
    18    11     2   ar
    19    12    13   ar
    20    16    15   am
    21     1    13   ar
    22    15    17    2
    23    19    20   ar
    24    21    24   ar
    25    22    23   ar
    26     2     3   ar
    27     4     5   ar
    28     6     7   ar
    29     8    10   ar
    30    11    14   ar
    31    16    18    1
@<TRIPOS>MOLECULE
MolPort-002-614-058 2421009 PubChem-1626256 ZINC000002421009 ZINC02421009
 28 31 0 0 0
SMALL
GASTEIGER

@<TRIPOS>ATOM
      1 C          14.6924   36.2104    7.0671 C.ar    1  UNL1        0.1571
      2 C          15.6998   36.4241    7.9953 C.ar    1  UNL1        0.0689
      3 C          16.9425   35.8456    8.2285 C.ar    1  UNL1        0.0074
      4 C          17.6683   36.3158    9.3366 C.ar    1  UNL1        0.0176
      5 C          18.9293   35.7885    9.6204 C.ar    1  UNL1        0.0015
      6 C          19.6496   36.2539   10.7231 C.ar    1  UNL1       -0.0002
      7 C          19.1134   37.2469   11.5484 C.ar    1  UNL1       -0.0028
      8 C          17.8512   37.7877   11.2836 C.ar    1  UNL1       -0.0042
      9 C          17.3147   38.8430   12.1898 C.3     1  UNL1        0.0326
     10 C          17.1135   37.3320   10.1776 C.ar    1  UNL1        0.0789
     11 C          15.1966   37.3810    8.8258 C.ar    1  UNL1        0.1620
     12 N          13.9564   37.7178    8.4405 N.ar    1  UNL1       -0.2329
     13 N          13.6332   37.0017    7.3685 N.ar    1  UNL1       -0.1527
     14 N          15.8720   37.8428    9.9073 N.ar    1  UNL1       -0.2271
     15 C          15.7987   34.8015    5.2480 C.2     1  UNL1        0.2521
     16 N          14.6673   35.2482    6.0059 N.am    1  UNL1       -0.2643
     17 O          16.8738   35.4597    5.2610 O.2     1  UNL1       -0.2697
     18 H          13.7930   34.8582    5.7764 H       1  UNL1        0.1566
     19 C          15.6872   33.5983    4.4056 C.ar    1  UNL1        0.0728
     20 C          16.8327   32.9718    3.8967 C.ar    1  UNL1        0.1034
     21 C          15.5083   31.3236    2.8168 C.ar    1  UNL1        0.0989
     22 C          14.3397   31.9134    3.3020 C.ar    1  UNL1        0.0208
     23 C          14.4338   33.0550    4.0994 C.ar    1  UNL1        0.0077
     24 N          16.7203   31.8600    3.1213 N.ar    1  UNL1       -0.2422
     25 C          13.0860   38.6958    9.0741 C.3     1  UNL1        0.1292
     26 C          11.9492   39.0666    8.1362 C.3     1  UNL1        0.0264
     27 C           9.4909   38.9250    7.7477 C.3     1  UNL1        0.0001
     28 C          10.6400   38.4811    8.6334 C.3     1  UNL1        0.0021
@<TRIPOS>BOND
     1    27    28    1
     2    28    26    1
     3    26    25    1
     4    25    12    1
     5     1    16    1
     6     1     2   ar
     7    15    19    1
     8    20    24   ar
     9    21    22   ar
    10    23    19   ar
    11     3     4   ar
    12     5     6   ar
    13     7     8   ar
    14     9     8    1
    15    10    14   ar
    16    10     4   ar
    17    11    12   ar
    18    11     2   ar
    19    12    13   ar
    20    16    15   am
    21     1    13   ar
    22    15    17    2
    23    19    20   ar
    24    21    24   ar
    25    22    23   ar
    26     2     3   ar
    27     4     5   ar
    28     6     7   ar
    29     8    10   ar
    30    11    14   ar
    31    16    18    1
@<TRIPOS>MOLECULE
MolPort-002-614-058 2421009 PubChem-1626256 ZINC000002421009 ZINC02421009
 28 31 0 0 0
SMALL
GASTEIGER

@<TRIPOS>ATOM
      1 C          12.1345   42.4444    8.2080 C.ar    1  UNL1        0.1571
      2 C          11.4179   41.6706    7.3082 C.ar    1  UNL1        0.0689
      3 C          11.6611   41.2041    6.0211 C.ar    1  UNL1        0.0074
      4 C          10.6327   40.4731    5.4015 C.ar    1  UNL1        0.0176
      5 C          10.8156   39.9633    4.1149 C.ar    1  UNL1        0.0015
      6 C           9.7928   39.2391    3.4980 C.ar    1  UNL1       -0.0002
      7 C           8.5819   39.0218    4.1624 C.ar    1  UNL1       -0.0028
      8 C           8.3768   39.5250    5.4510 C.ar    1  UNL1       -0.0042
      9 C           7.0702   39.2732    6.1234 C.3     1  UNL1        0.0326
     10 C           9.3957   40.2547    6.0869 C.ar    1  UNL1        0.0789
     11 C          10.2217   41.4551    7.9258 C.ar    1  UNL1        0.1620
     12 N          10.2022   42.0711    9.1174 N.ar    1  UNL1       -0.2329
     13 N          11.3659   42.6872    9.2984 N.ar    1  UNL1       -0.1527
     14 N           9.2102   40.7632    7.3448 N.ar    1  UNL1       -0.2271
     15 C          14.6558   42.2926    7.8358 C.2     1  UNL1        0.2521
     16 N          13.4351   43.0182    8.0298 N.am    1  UNL1       -0.2643
     17 O          14.7173   41.0644    8.1132 O.2     1  UNL1       -0.2697
     18 H          13.4960   44.0008    8.0417 H       1  UNL1        0.1566
     19 C          15.8596   42.9975    7.3628 C.ar    1  UNL1        0.0728
     20 C          15.8702   43.6405    6.1179 C.ar    1  UNL1        0.1034
     21 C          18.1154   44.3396    6.4456 C.ar    1  UNL1        0.0989
     22 C          18.1510   43.7138    7.6930 C.ar    1  UNL1        0.0208
     23 C          17.0165   43.0414    8.1500 C.ar    1  UNL1        0.0077
     24 N          16.9857   44.2907    5.6901 N.ar    1  UNL1       -0.2422
     25 C           9.1035   42.0838   10.0703 C.3     1  UNL1        0.1292
     26 C           9.5521   41.4806   11.3910 C.3     1  UNL1        0.0264
     27 C           7.0687   41.5023   11.6079 C.3     1  UNL1        0.0001
     28 C           8.3839   41.3908   12.3562 C.3     1  UNL1        0.0021
@<TRIPOS>BOND
     1    27    28    1
     2    28    26    1
     3    26    25    1
     4    25    12    1
     5     1    16    1
     6     1     2   ar
     7    15    19    1
     8    20    24   ar
     9    21    22   ar
    10    23    19   ar
    11     3     4   ar
    12     5     6   ar
    13     7     8   ar
    14     9     8    1
    15    10    14   ar
    16    10     4   ar
    17    11    12   ar
    18    11     2   ar
    19    12    13   ar
    20    16    15   am
    21     1    13   ar
    22    15    17    2
    23    19    20   ar
    24    21    24   ar
    25    22    23   ar
    26     2     3   ar
    27     4     5   ar
    28     6     7   ar
    29     8    10   ar
    30    11    14   ar
    31    16    18    1
@<TRIPOS>MOLECULE
MolPort-002-614-058 2421009 PubChem-1626256 ZINC000002421009 ZINC02421009
 28 31 0 0 0
SMALL
GASTEIGER

@<TRIPOS>ATOM
      1 C          12.4566   40.0995    8.2825 C.ar    1  UNL1        0.1571
      2 C          13.2945   41.1077    7.8315 C.ar    1  UNL1        0.0689
      3 C          13.1845   42.1001    6.8638 C.ar    1  UNL1        0.0074
      4 C          14.3080   42.9193    6.6582 C.ar    1  UNL1        0.0176
      5 C          14.2611   43.9445    5.7118 C.ar    1  UNL1        0.0015
      6 C          15.3785   44.7570    5.5055 C.ar    1  UNL1       -0.0002
      7 C          16.5485   44.5487    6.2421 C.ar    1  UNL1       -0.0028
      8 C          16.6178   43.5264    7.1938 C.ar    1  UNL1       -0.0042
      9 C          17.8849   43.3362    7.9561 C.3     1  UNL1        0.0326
     10 C          15.5026   42.7005    7.4151 C.ar    1  UNL1        0.0789
     11 C          14.4533   40.9192    8.5246 C.ar    1  UNL1        0.1620
     12 N          14.3370   39.8553    9.3335 N.ar    1  UNL1       -0.2329
     13 N          13.1206   39.3398    9.1885 N.ar    1  UNL1       -0.1527
     14 N          15.5543   41.6884    8.3362 N.ar    1  UNL1       -0.2271
     15 C           9.9116   40.2552    8.4116 C.2     1  UNL1        0.2521
     16 N          11.1342   39.7889    7.8271 N.am    1  UNL1       -0.2643
     17 O           9.9066   40.7406    9.5751 O.2     1  UNL1       -0.2697
     18 H          11.0585   39.2015    7.0407 H       1  UNL1        0.1566
     19 C           8.6458   40.1153    7.6714 C.ar    1  UNL1        0.0728
     20 C           8.5557   39.2650    6.5612 C.ar    1  UNL1        0.1034
     21 C           6.2690   39.8273    6.2575 C.ar    1  UNL1        0.0989
     22 C           6.3114   40.6855    7.3577 C.ar    1  UNL1        0.0208
     23 C           7.5063   40.8271    8.0650 C.ar    1  UNL1        0.0077
     24 N           7.3822   39.1405    5.8849 N.ar    1  UNL1       -0.2422
     25 C          15.3567   39.3283   10.2269 C.3     1  UNL1        0.1292
     26 C          14.7264   38.8985   11.5411 C.3     1  UNL1        0.0264
     27 C          13.7547   36.6349   11.1585 C.3     1  UNL1        0.0001
     28 C          14.9153   37.4078   11.7565 C.3     1  UNL1        0.0021
@<TRIPOS>BOND
     1    27    28    1
     2    28    26    1
     3    26    25    1
     4    25    12    1
     5     1    16    1
     6     1     2   ar
     7    15    19    1
     8    20    24   ar
     9    21    22   ar
    10    23    19   ar
    11     3     4   ar
    12     5     6   ar
    13     7     8   ar
    14     9     8    1
    15    10    14   ar
    16    10     4   ar
    17    11    12   ar
    18    11     2   ar
    19    12    13   ar
    20    16    15   am
    21     1    13   ar
    22    15    17    2
    23    19    20   ar
    24    21    24   ar
    25    22    23   ar
    26     2     3   ar
    27     4     5   ar
    28     6     7   ar
    29     8    10   ar
    30    11    14   ar
    31    16    18    1
@<TRIPOS>MOLECULE
MolPort-002-614-058 2421009 PubChem-1626256 ZINC000002421009 ZINC02421009
 28 31 0 0 0
SMALL
GASTEIGER

@<TRIPOS>ATOM
      1 C          11.9459   41.0434    8.1132 C.ar    1  UNL1        0.1571
      2 C          13.1222   41.7221    7.8345 C.ar    1  UNL1        0.0689
      3 C          13.4328   42.8678    7.1104 C.ar    1  UNL1        0.0074
      4 C          14.7920   43.2125    7.0119 C.ar    1  UNL1        0.0176
      5 C          15.1730   44.3584    6.3115 C.ar    1  UNL1        0.0015
      6 C          16.5239   44.6996    6.2114 C.ar    1  UNL1       -0.0002
      7 C          17.5007   43.8973    6.8088 C.ar    1  UNL1       -0.0028
      8 C          17.1414   42.7441    7.5136 C.ar    1  UNL1       -0.0042
      9 C          18.2141   41.9149    8.1336 C.3     1  UNL1        0.0326
     10 C          15.7868   42.3868    7.6253 C.ar    1  UNL1        0.0789
     11 C          14.0976   40.9516    8.3944 C.ar    1  UNL1        0.1620
     12 N          13.5547   39.8647    8.9633 N.ar    1  UNL1       -0.2329
     13 N          12.2375   39.9056    8.7908 N.ar    1  UNL1       -0.1527
     14 N          15.4160   41.2564    8.3036 N.ar    1  UNL1       -0.2271
     15 C           9.6351   42.0691    8.4685 C.2     1  UNL1        0.2521
     16 N          10.6190   41.3776    7.6888 N.am    1  UNL1       -0.2643
     17 O           9.7691   42.1706    9.7178 O.2     1  UNL1       -0.2697
     18 H          10.3592   41.1076    6.7784 H       1  UNL1        0.1566
     19 C           8.4336   42.6152    7.8143 C.ar    1  UNL1        0.0728
     20 C           8.0765   42.2115    6.5209 C.ar    1  UNL1        0.1034
     21 C           6.1692   43.6251    6.5560 C.ar    1  UNL1        0.0989
     22 C           6.4853   44.0559    7.8456 C.ar    1  UNL1        0.0208
     23 C           7.6226   43.5464    8.4740 C.ar    1  UNL1        0.0077
     24 N           6.9641   42.7196    5.9254 N.ar    1  UNL1       -0.2422
     25 C          14.2648   38.8005    9.6552 C.3     1  UNL1        0.1292
     26 C          13.7110   38.6323   11.0603 C.3     1  UNL1        0.0264
     27 C          16.1778   38.7805   11.3886 C.3     1  UNL1        0.0001
     28 C          14.8310   38.7015   12.0827 C.3     1  UNL1        0.0021
@<TRIPOS>BOND
     1    27    28    1
     2    28    26    1
     3    26    25    1
     4    25    12    1
     5     1    16    1
     6     1     2   ar
     7    15    19    1
     8    20    24   ar
     9    21    22   ar
    10    23    19   ar
    11     3     4   ar
    12     5     6   ar
    13     7     8   ar
    14     9     8    1
    15    10    14   ar
    16    10     4   ar
    17    11    12   ar
    18    11     2   ar
    19    12    13   ar
    20    16    15   am
    21     1    13   ar
    22    15    17    2
    23    19    20   ar
    24    21    24   ar
    25    22    23   ar
    26     2     3   ar
    27     4     5   ar
    28     6     7   ar
    29     8    10   ar
    30    11    14   ar
    31    16    18    1
@<TRIPOS>MOLECULE
MolPort-002-614-058 2421009 PubChem-1626256 ZINC000002421009 ZINC02421009
 28 31 0 0 0
SMALL
GASTEIGER

@<TRIPOS>ATOM
      1 C          12.5639   41.0805    7.8862 C.ar    1  UNL1        0.1571
      2 C          12.7808   40.0039    8.7323 C.ar    1  UNL1        0.0689
      3 C          13.8814   39.5319    9.4390 C.ar    1  UNL1        0.0074
      4 C          13.7119   38.3393   10.1633 C.ar    1  UNL1        0.0176
      5 C          14.7719   37.8169   10.9066 C.ar    1  UNL1        0.0015
      6 C          14.6045   36.6303   11.6244 C.ar    1  UNL1       -0.0002
      7 C          13.3783   35.9589   11.6021 C.ar    1  UNL1       -0.0028
      8 C          12.3038   36.4635   10.8629 C.ar    1  UNL1       -0.0042
      9 C          11.0140   35.7157   10.8637 C.3     1  UNL1        0.0326
     10 C          12.4545   37.6568   10.1360 C.ar    1  UNL1        0.0789
     11 C          11.6015   39.3200    8.7180 C.ar    1  UNL1        0.1620
     12 N          10.7269   39.9294    7.9034 N.ar    1  UNL1       -0.2329
     13 N          11.3075   41.0051    7.3818 N.ar    1  UNL1       -0.1527
     14 N          11.4167   38.1617    9.3988 N.ar    1  UNL1       -0.2271
     15 C          14.8997   42.1086    7.8129 C.2     1  UNL1        0.2521
     16 N          13.5053   42.0822    7.4826 N.am    1  UNL1       -0.2643
     17 O          15.3450   41.3957    8.7524 O.2     1  UNL1       -0.2697
     18 H          13.1631   42.8199    6.9276 H       1  UNL1        0.1566
     19 C          15.8071   43.0148    7.0882 C.ar    1  UNL1        0.0728
     20 C          15.3293   43.8290    6.0527 C.ar    1  UNL1        0.1034
     21 C          17.4949   44.7382    5.7054 C.ar    1  UNL1        0.0989
     22 C          18.0155   43.9461    6.7303 C.ar    1  UNL1        0.0208
     23 C          17.1650   43.0825    7.4222 C.ar    1  UNL1        0.0077
     24 N          16.1741   44.6643    5.3902 N.ar    1  UNL1       -0.2422
     25 C           9.3661   39.5037    7.6162 C.3     1  UNL1        0.1292
     26 C           9.0077   39.8391    6.1780 C.3     1  UNL1        0.0264
     27 C           9.3868   38.8060    3.9411 C.3     1  UNL1        0.0001
     28 C          10.0450   39.2698    5.2271 C.3     1  UNL1        0.0021
@<TRIPOS>BOND
     1    27    28    1
     2    28    26    1
     3    26    25    1
     4    25    12    1
     5     1    16    1
     6     1     2   ar
     7    15    19    1
     8    20    24   ar
     9    21    22   ar
    10    23    19   ar
    11     3     4   ar
    12     5     6   ar
    13     7     8   ar
    14     9     8    1
    15    10    14   ar
    16    10     4   ar
    17    11    12   ar
    18    11     2   ar
    19    12    13   ar
    20    16    15   am
    21     1    13   ar
    22    15    17    2
    23    19    20   ar
    24    21    24   ar
    25    22    23   ar
    26     2     3   ar
    27     4     5   ar
    28     6     7   ar
    29     8    10   ar
    30    11    14   ar
    31    16    18    1
@<TRIPOS>MOLECULE
MolPort-002-614-058 2421009 PubChem-1626256 ZINC000002421009 ZINC02421009
 28 31 0 0 0
SMALL
GASTEIGER

@<TRIPOS>ATOM
      1 C          11.5897   41.8412    8.0818 C.ar    1  UNL1        0.1571
      2 C          12.5315   41.1446    8.8233 C.ar    1  UNL1        0.0689
      3 C          12.4757   40.3570    9.9679 C.ar    1  UNL1        0.0074
      4 C          13.6939   39.8560   10.4586 C.ar    1  UNL1        0.0176
      5 C          13.7087   39.0466   11.5959 C.ar    1  UNL1        0.0015
      6 C          14.9196   38.5508   12.0852 C.ar    1  UNL1       -0.0002
      7 C          16.1213   38.8620   11.4420 C.ar    1  UNL1       -0.0028
      8 C          16.1295   39.6724   10.3023 C.ar    1  UNL1       -0.0042
      9 C          17.4328   39.9823    9.6479 C.3     1  UNL1        0.0326
     10 C          14.9204   40.1787    9.7958 C.ar    1  UNL1        0.0789
     11 C          13.7199   41.4428    8.2255 C.ar    1  UNL1        0.1620
     12 N          13.5195   42.2802    7.1968 N.ar    1  UNL1       -0.2329
     13 N          12.2190   42.5379    7.1034 N.ar    1  UNL1       -0.1527
     14 N          14.9091   40.9813    8.6863 N.ar    1  UNL1       -0.2271
     15 C           9.5334   42.9278    9.1349 C.2     1  UNL1        0.2521
     16 N          10.1810   41.9396    8.3238 N.am    1  UNL1       -0.2643
     17 O          10.2006   43.6169    9.9530 O.2     1  UNL1       -0.2697
     18 H           9.6053   41.2668    7.8935 H       1  UNL1        0.1566
     19 C           8.0729   43.1006    9.0526 C.ar    1  UNL1        0.0728
     20 C           7.5180   44.3203    8.6428 C.ar    1  UNL1        0.1034
     21 C           5.3203   43.4548    8.8831 C.ar    1  UNL1        0.0989
     22 C           5.8277   42.2215    9.2957 C.ar    1  UNL1        0.0208
     23 C           7.2100   42.0476    9.3792 C.ar    1  UNL1        0.0077
     24 N           6.1682   44.4702    8.5677 N.ar    1  UNL1       -0.2422
     25 C          14.5368   42.8337    6.3170 C.3     1  UNL1        0.1292
     26 C          15.4876   43.7153    7.1095 C.3     1  UNL1        0.0264
     27 C          17.6770   43.8155    5.9216 C.3     1  UNL1        0.0001
     28 C          16.3615   44.5287    6.1719 C.3     1  UNL1        0.0021
@<TRIPOS>BOND
     1    27    28    1
     2    28    26    1
     3    26    25    1
     4    25    12    1
     5     1    16    1
     6     1     2   ar
     7    15    19    1
     8    20    24   ar
     9    21    22   ar
    10    23    19   ar
    11     3     4   ar
    12     5     6   ar
    13     7     8   ar
    14     9     8    1
    15    10    14   ar
    16    10     4   ar
    17    11    12   ar
    18    11     2   ar
    19    12    13   ar
    20    16    15   am
    21     1    13   ar
    22    15    17    2
    23    19    20   ar
    24    21    24   ar
    25    22    23   ar
    26     2     3   ar
    27     4     5   ar
    28     6     7   ar
    29     8    10   ar
    30    11    14   ar
    31    16    18    1
@<TRIPOS>MOLECULE
MolPort-002-614-058 2421009 PubChem-1626256 ZINC000002421009 ZINC02421009
 28 31 0 0 0
SMALL
GASTEIGER

@<TRIPOS>ATOM
      1 C          11.3287   41.4493    7.6393 C.ar    1  UNL1        0.1571
      2 C          10.0337   41.8851    7.8742 C.ar    1  UNL1        0.0689
      3 C           9.4348   43.1358    7.9772 C.ar    1  UNL1        0.0074
      4 C           8.0644   43.1642    8.2886 C.ar    1  UNL1        0.0176
      5 C           7.3971   44.3859    8.3932 C.ar    1  UNL1        0.0015
      6 C           6.0358   44.4144    8.7052 C.ar    1  UNL1       -0.0002
      7 C           5.3348   43.2231    8.9157 C.ar    1  UNL1       -0.0028
      8 C           5.9840   41.9883    8.8176 C.ar    1  UNL1       -0.0042
      9 C           5.2006   40.7417    9.0520 C.3     1  UNL1        0.0326
     10 C           7.3529   41.9413    8.5033 C.ar    1  UNL1        0.0789
     11 C           9.3276   40.7407    8.0987 C.ar    1  UNL1        0.1620
     12 N          10.1411   39.6766    8.0228 N.ar    1  UNL1       -0.2329
     13 N          11.3714   40.0985    7.7495 N.ar    1  UNL1       -0.1527
     14 N           8.0080   40.7423    8.4118 N.ar    1  UNL1       -0.2271
     15 C          13.8534   41.8277    7.6101 C.2     1  UNL1        0.2521
     16 N          12.4969   42.2492    7.4197 N.am    1  UNL1       -0.2643
     17 O          14.1104   40.7951    8.2861 O.2     1  UNL1       -0.2697
     18 H          12.3548   43.1727    7.1098 H       1  UNL1        0.1566
     19 C          14.9555   42.6358    7.0604 C.ar    1  UNL1        0.0728
     20 C          14.7667   43.4182    5.9133 C.ar    1  UNL1        0.1034
     21 C          17.0154   44.1748    6.0026 C.ar    1  UNL1        0.0989
     22 C          17.2497   43.4114    7.1476 C.ar    1  UNL1        0.0208
     23 C          16.2130   42.6404    7.6757 C.ar    1  UNL1        0.0077
     24 N          15.7895   44.1629    5.4139 N.ar    1  UNL1       -0.2422
     25 C           9.7676   38.2833    8.2091 C.3     1  UNL1        0.1292
     26 C          10.7953   37.5803    9.0802 C.3     1  UNL1        0.0264
     27 C          12.7796   38.2325   10.4411 C.3     1  UNL1        0.0001
     28 C          11.3200   38.5243   10.1469 C.3     1  UNL1        0.0021
@<TRIPOS>BOND
     1    27    28    1
     2    28    26    1
     3    26    25    1
     4    25    12    1
     5     1    16    1
     6     1     2   ar
     7    15    19    1
     8    20    24   ar
     9    21    22   ar
    10    23    19   ar
    11     3     4   ar
    12     5     6   ar
    13     7     8   ar
    14     9     8    1
    15    10    14   ar
    16    10     4   ar
    17    11    12   ar
    18    11     2   ar
    19    12    13   ar
    20    16    15   am
    21     1    13   ar
    22    15    17    2
    23    19    20   ar
    24    21    24   ar
    25    22    23   ar
    26     2     3   ar
    27     4     5   ar
    28     6     7   ar
    29     8    10   ar
    30    11    14   ar
    31    16    18    1
@<TRIPOS>MOLECULE
MolPort-002-614-058 2421009 PubChem-1626256 ZINC000002421009 ZINC02421009
 28 31 0 0 0
SMALL
GASTEIGER

@<TRIPOS>ATOM
      1 C          11.7882   41.9512    7.4551 C.ar    1  UNL1        0.1571
      2 C          10.9441   41.8485    8.5501 C.ar    1  UNL1        0.0689
      3 C          11.1437   41.7427    9.9221 C.ar    1  UNL1        0.0074
      4 C           9.9990   41.5981   10.7249 C.ar    1  UNL1        0.0176
      5 C          10.1263   41.5007   12.1117 C.ar    1  UNL1        0.0015
      6 C           8.9889   41.3543   12.9095 C.ar    1  UNL1       -0.0002
      7 C           7.7194   41.3029   12.3261 C.ar    1  UNL1       -0.0028
      8 C           7.5691   41.3968   10.9389 C.ar    1  UNL1       -0.0042
      9 C           6.1980   41.3352   10.3568 C.3     1  UNL1        0.0326
     10 C           8.7025   41.5457   10.1215 C.ar    1  UNL1        0.0789
     11 C           9.6948   41.7810    8.0085 C.ar    1  UNL1        0.1620
     12 N           9.7715   41.8227    6.6698 N.ar    1  UNL1       -0.2329
     13 N          11.0496   41.9191    6.3183 N.ar    1  UNL1       -0.1527
     14 N           8.5763   41.6302    8.7605 N.ar    1  UNL1       -0.2271
     15 C          14.0406   43.0430    6.9520 C.2     1  UNL1        0.2521
     16 N          13.2206   41.9789    7.4515 N.am    1  UNL1       -0.2643
     17 O          13.5511   43.9201    6.1903 O.2     1  UNL1       -0.2697
     18 H          13.6840   41.1954    7.8265 H       1  UNL1        0.1566
     19 C          15.4749   43.0805    7.2851 C.ar    1  UNL1        0.0728
     20 C          16.2968   44.1049    6.7966 C.ar    1  UNL1        0.1034
     21 C          18.1846   43.1803    7.9005 C.ar    1  UNL1        0.0989
     22 C          17.4045   42.1409    8.4104 C.ar    1  UNL1        0.0208
     23 C          16.0447   42.0946    8.0994 C.ar    1  UNL1        0.0077
     24 N          17.6199   44.1328    7.1109 N.ar    1  UNL1       -0.2422
     25 C           8.6591   41.7681    5.7343 C.3     1  UNL1        0.1292
     26 C           7.3460   41.9618    6.4743 C.3     1  UNL1        0.0264
     27 C           6.4302   44.0653    7.4496 C.3     1  UNL1        0.0001
     28 C           6.7607   43.3280    6.1654 C.3     1  UNL1        0.0021
@<TRIPOS>BOND
     1    27    28    1
     2    28    26    1
     3    26    25    1
     4    25    12    1
     5     1    16    1
     6     1     2   ar
     7    15    19    1
     8    20    24   ar
     9    21    22   ar
    10    23    19   ar
    11     3     4   ar
    12     5     6   ar
    13     7     8   ar
    14     9     8    1
    15    10    14   ar
    16    10     4   ar
    17    11    12   ar
    18    11     2   ar
    19    12    13   ar
    20    16    15   am
    21     1    13   ar
    22    15    17    2
    23    19    20   ar
    24    21    24   ar
    25    22    23   ar
    26     2     3   ar
    27     4     5   ar
    28     6     7   ar
    29     8    10   ar
    30    11    14   ar
    31    16    18    1
