@<TRIPOS>MOLECULE
MolPort-003-172-299 10253880 CSSS03437139166 MCULE-1331929296 PubChem-18587237 SRKPZIIQFUHGMN-UHFFFAOYSA-N ZINC000010253880 ZINC10253880
 28 31 0 0 0
SMALL
GASTEIGER

@<TRIPOS>ATOM
      1 C          11.9478   41.6939    7.2266 C.ar    1  UNL1        0.1659
      2 C          14.1650   41.8909    7.5686 C.ar    1  UNL1        0.0923
      3 C          13.9072   40.7560    8.3601 C.ar    1  UNL1        0.0886
      4 N          13.0643   42.3984    6.9454 N.ar    1  UNL1       -0.2238
      5 S          12.2601   40.4059    8.2502 S.2     1  UNL1       -0.0481
      6 C          15.4775   42.5589    7.4255 C.ar    1  UNL1        0.0183
      7 C          16.5280   42.2112    8.2881 C.ar    1  UNL1        0.0015
      8 C          17.7874   42.8014    8.1469 C.ar    1  UNL1        0.0000
      9 C          18.0107   43.7372    7.1339 C.ar    1  UNL1        0.0000
     10 C          16.9762   44.0790    6.2594 C.ar    1  UNL1        0.0000
     11 C          15.7176   43.4879    6.4015 C.ar    1  UNL1        0.0015
     12 O           9.4494   41.6968    8.6958 O.2     1  UNL1       -0.2663
     13 C           9.4380   41.9912    7.4705 C.2     1  UNL1        0.2883
     14 N          10.6506   42.0013    6.7078 N.am    1  UNL1       -0.2580
     15 H          10.5862   42.2377    5.7543 H       1  UNL1        0.1572
     16 O           7.6882   41.7074    5.7736 O.2     1  UNL1       -0.3487
     17 C           8.1670   42.3262    6.8217 C.ar    1  UNL1        0.2302
     18 C           7.2957   43.3256    7.2073 C.ar    1  UNL1        0.0690
     19 C           6.2711   43.2207    6.2797 C.ar    1  UNL1        0.1440
     20 N           6.5492   42.2195    5.4208 N.ar    1  UNL1       -0.0751
     21 O          16.0917   40.2635    9.1071 O.2     1  UNL1       -0.2860
     22 C          14.8924   39.8812    9.0302 C.2     1  UNL1        0.2030
     23 C          14.5188   38.5596    9.5814 C.ar    1  UNL1        0.0395
     24 C          14.1580   38.4419   10.9326 C.ar    1  UNL1        0.0032
     25 C          13.7850   37.2033   11.4626 C.ar    1  UNL1        0.0001
     26 C          13.7644   36.0710   10.6446 C.ar    1  UNL1        0.0000
     27 C          14.1143   36.1776    9.2964 C.ar    1  UNL1        0.0001
     28 C          14.4868   37.4165    8.7672 C.ar    1  UNL1        0.0032
@<TRIPOS>BOND
     1    13    14   am
     2    13    17    1
     3     1     5   ar
     4     2     4   ar
     5     2     6    1
     6     3     5   ar
     7     3    22    1
     8    22    23    1
     9    24    25   ar
    10    26    27   ar
    11    28    23   ar
    12     7     8   ar
    13     9    10   ar
    14    11     6   ar
    15    17    16   ar
    16    18    19   ar
    17    14     1    1
    18    20    16   ar
    19    13    12    2
    20     1     4   ar
    21     2     3   ar
    22    22    21    2
    23    23    24   ar
    24    25    26   ar
    25    27    28   ar
    26     6     7   ar
    27     8     9   ar
    28    10    11   ar
    29    17    18   ar
    30    19    20   ar
    31    14    15    1
@<TRIPOS>MOLECULE
MolPort-003-172-299 10253880 CSSS03437139166 MCULE-1331929296 PubChem-18587237 SRKPZIIQFUHGMN-UHFFFAOYSA-N ZINC000010253880 ZINC10253880
 28 31 0 0 0
SMALL
GASTEIGER

@<TRIPOS>ATOM
      1 C           4.7709   41.6533    9.4505 C.ar    1  UNL1        0.1659
      2 C           6.9593   41.8601    8.9605 C.ar    1  UNL1        0.0923
      3 C           6.4670   41.5166    7.6874 C.ar    1  UNL1        0.0886
      4 N           6.0022   41.9322    9.9281 N.ar    1  UNL1       -0.2238
      5 S           4.7967   41.3117    7.8113 S.2     1  UNL1       -0.0481
      6 C           8.3821   42.0817    9.3008 C.ar    1  UNL1        0.0183
      7 C           9.2606   40.9887    9.3458 C.ar    1  UNL1        0.0015
      8 C          10.6167   41.1790    9.6274 C.ar    1  UNL1        0.0000
      9 C          11.1087   42.4664    9.8559 C.ar    1  UNL1        0.0000
     10 C          10.2459   43.5635    9.7977 C.ar    1  UNL1        0.0000
     11 C           8.8904   43.3719    9.5158 C.ar    1  UNL1        0.0015
     12 O           4.4981   42.6371   12.1631 O.2     1  UNL1       -0.2663
     13 C           3.4886   42.1536   11.5841 C.2     1  UNL1        0.2883
     14 N           3.5806   41.6562   10.2438 N.am    1  UNL1       -0.2580
     15 H           2.7625   41.2885    9.8380 H       1  UNL1        0.1572
     16 O           1.3053   43.0479   12.2591 O.2     1  UNL1       -0.3487
     17 C           2.2071   42.1011   12.2938 C.ar    1  UNL1        0.2302
     18 C           1.7614   41.0664   13.0922 C.ar    1  UNL1        0.0690
     19 C           0.5174   41.5106   13.5123 C.ar    1  UNL1        0.1440
     20 N           0.2761   42.7259   12.9808 N.ar    1  UNL1       -0.0751
     21 O           6.8113   42.2639    5.4748 O.2     1  UNL1       -0.2860
     22 C           7.2049   41.5107    6.4067 C.2     1  UNL1        0.2030
     23 C           8.3677   40.6247    6.1770 C.ar    1  UNL1        0.0395
     24 C           8.2978   39.2706    6.5396 C.ar    1  UNL1        0.0032
     25 C           9.3816   38.4177    6.3117 C.ar    1  UNL1        0.0001
     26 C          10.5444   38.9100    5.7140 C.ar    1  UNL1        0.0000
     27 C          10.6225   40.2542    5.3420 C.ar    1  UNL1        0.0001
     28 C           9.5383   41.1063    5.5699 C.ar    1  UNL1        0.0032
@<TRIPOS>BOND
     1    13    14   am
     2    13    17    1
     3     1     5   ar
     4     2     4   ar
     5     2     6    1
     6     3     5   ar
     7     3    22    1
     8    22    23    1
     9    24    25   ar
    10    26    27   ar
    11    28    23   ar
    12     7     8   ar
    13     9    10   ar
    14    11     6   ar
    15    17    16   ar
    16    18    19   ar
    17    14     1    1
    18    20    16   ar
    19    13    12    2
    20     1     4   ar
    21     2     3   ar
    22    22    21    2
    23    23    24   ar
    24    25    26   ar
    25    27    28   ar
    26     6     7   ar
    27     8     9   ar
    28    10    11   ar
    29    17    18   ar
    30    19    20   ar
    31    14    15    1
@<TRIPOS>MOLECULE
MolPort-003-172-299 10253880 CSSS03437139166 MCULE-1331929296 PubChem-18587237 SRKPZIIQFUHGMN-UHFFFAOYSA-N ZINC000010253880 ZINC10253880
 28 31 0 0 0
SMALL
GASTEIGER

@<TRIPOS>ATOM
      1 C          12.5638   41.9313    7.6988 C.ar    1  UNL1        0.1659
      2 C          10.7148   41.6650    8.9566 C.ar    1  UNL1        0.0923
      3 C          10.1775   41.3754    7.6884 C.ar    1  UNL1        0.0886
      4 N          12.0428   41.9711    8.9434 N.ar    1  UNL1       -0.2238
      5 S          11.4182   41.5096    6.5526 S.2     1  UNL1       -0.0481
      6 C           9.9523   41.7068   10.2240 C.ar    1  UNL1        0.0183
      7 C          10.2449   40.7822   11.2378 C.ar    1  UNL1        0.0015
      8 C           9.5638   40.8273   12.4579 C.ar    1  UNL1        0.0000
      9 C           8.5909   41.8051   12.6790 C.ar    1  UNL1        0.0000
     10 C           8.3028   42.7407   11.6823 C.ar    1  UNL1        0.0000
     11 C           8.9847   42.6947   10.4631 C.ar    1  UNL1        0.0015
     12 O          13.5902   44.2423    6.2825 O.2     1  UNL1       -0.2663
     13 C          14.3991   43.3648    6.6870 C.2     1  UNL1        0.2883
     14 N          13.9332   42.2072    7.3907 N.am    1  UNL1       -0.2580
     15 H          14.6066   41.5519    7.6845 H       1  UNL1        0.1572
     16 O          16.3374   43.9358    5.2945 O.2     1  UNL1       -0.3487
     17 C          15.8327   43.5339    6.4324 C.ar    1  UNL1        0.2302
     18 C          16.8519   43.3007    7.3342 C.ar    1  UNL1        0.0690
     19 C          17.9899   43.6072    6.6045 C.ar    1  UNL1        0.1440
     20 N          17.6321   43.9913    5.3627 N.ar    1  UNL1       -0.0751
     21 O           8.7232   39.7290    6.8240 O.2     1  UNL1       -0.2860
     22 C           8.8285   40.8573    7.3774 C.2     1  UNL1        0.2030
     23 C           7.6044   41.6374    7.6658 C.ar    1  UNL1        0.0395
     24 C           6.5846   41.0748    8.4489 C.ar    1  UNL1        0.0032
     25 C           5.4309   41.8065    8.7448 C.ar    1  UNL1        0.0001
     26 C           5.2884   43.1106    8.2643 C.ar    1  UNL1        0.0000
     27 C           6.3002   43.6836    7.4902 C.ar    1  UNL1        0.0001
     28 C           7.4536   42.9514    7.1951 C.ar    1  UNL1        0.0032
@<TRIPOS>BOND
     1    13    14   am
     2    13    17    1
     3     1     5   ar
     4     2     4   ar
     5     2     6    1
     6     3     5   ar
     7     3    22    1
     8    22    23    1
     9    24    25   ar
    10    26    27   ar
    11    28    23   ar
    12     7     8   ar
    13     9    10   ar
    14    11     6   ar
    15    17    16   ar
    16    18    19   ar
    17    14     1    1
    18    20    16   ar
    19    13    12    2
    20     1     4   ar
    21     2     3   ar
    22    22    21    2
    23    23    24   ar
    24    25    26   ar
    25    27    28   ar
    26     6     7   ar
    27     8     9   ar
    28    10    11   ar
    29    17    18   ar
    30    19    20   ar
    31    14    15    1
@<TRIPOS>MOLECULE
MolPort-003-172-299 10253880 CSSS03437139166 MCULE-1331929296 PubChem-18587237 SRKPZIIQFUHGMN-UHFFFAOYSA-N ZINC000010253880 ZINC10253880
 28 31 0 0 0
SMALL
GASTEIGER

@<TRIPOS>ATOM
      1 C           3.9043   41.4080   11.7619 C.ar    1  UNL1        0.1659
      2 C           6.0019   41.4157   10.9422 C.ar    1  UNL1        0.0923
      3 C           5.2897   41.1520    9.7572 C.ar    1  UNL1        0.0886
      4 N           5.2155   41.5559   12.0465 N.ar    1  UNL1       -0.2238
      5 S           3.6458   41.1053   10.1353 S.2     1  UNL1       -0.0481
      6 C           7.4748   41.4915   11.0610 C.ar    1  UNL1        0.0183
      7 C           8.0872   41.1739   12.2827 C.ar    1  UNL1        0.0015
      8 C           9.4794   41.2014   12.4072 C.ar    1  UNL1        0.0000
      9 C          10.2726   41.5365   11.3071 C.ar    1  UNL1        0.0000
     10 C           9.6740   41.8391   10.0816 C.ar    1  UNL1        0.0000
     11 C           8.2820   41.8108    9.9584 C.ar    1  UNL1        0.0015
     12 O           1.3201   42.6679   11.3948 O.2     1  UNL1       -0.2663
     13 C           1.5893   42.1386   12.5063 C.2     1  UNL1        0.2883
     14 N           2.8551   41.5059   12.7293 N.am    1  UNL1       -0.2580
     15 H           3.0150   41.1082   13.6156 H       1  UNL1        0.1572
     16 O           0.8816   42.3040   14.8502 O.2     1  UNL1       -0.3487
     17 C           0.5933   42.1731   13.5811 C.ar    1  UNL1        0.2302
     18 C          -0.7752   42.0750   13.4251 C.ar    1  UNL1        0.0690
     19 C          -1.2442   42.1622   14.7266 C.ar    1  UNL1        0.1440
     20 N          -0.1997   42.3014   15.5675 N.ar    1  UNL1       -0.0751
     21 O           5.9936   39.9837    7.8305 O.2     1  UNL1       -0.2860
     22 C           5.8193   41.1064    8.3780 C.2     1  UNL1        0.2030
     23 C           6.1809   42.3353    7.6369 C.ar    1  UNL1        0.0395
     24 C           5.6719   43.5763    8.0498 C.ar    1  UNL1        0.0032
     25 C           6.0194   44.7477    7.3707 C.ar    1  UNL1        0.0001
     26 C           6.8840   44.6896    6.2749 C.ar    1  UNL1        0.0000
     27 C           7.4028   43.4608    5.8597 C.ar    1  UNL1        0.0001
     28 C           7.0550   42.2901    6.5394 C.ar    1  UNL1        0.0032
@<TRIPOS>BOND
     1    13    14   am
     2    13    17    1
     3     1     5   ar
     4     2     4   ar
     5     2     6    1
     6     3     5   ar
     7     3    22    1
     8    22    23    1
     9    24    25   ar
    10    26    27   ar
    11    28    23   ar
    12     7     8   ar
    13     9    10   ar
    14    11     6   ar
    15    17    16   ar
    16    18    19   ar
    17    14     1    1
    18    20    16   ar
    19    13    12    2
    20     1     4   ar
    21     2     3   ar
    22    22    21    2
    23    23    24   ar
    24    25    26   ar
    25    27    28   ar
    26     6     7   ar
    27     8     9   ar
    28    10    11   ar
    29    17    18   ar
    30    19    20   ar
    31    14    15    1
@<TRIPOS>MOLECULE
MolPort-003-172-299 10253880 CSSS03437139166 MCULE-1331929296 PubChem-18587237 SRKPZIIQFUHGMN-UHFFFAOYSA-N ZINC000010253880 ZINC10253880
 28 31 0 0 0
SMALL
GASTEIGER

@<TRIPOS>ATOM
      1 C           4.7381   42.0829   11.3061 C.ar    1  UNL1        0.1659
      2 C           6.8638   41.8471   10.6007 C.ar    1  UNL1        0.0923
      3 C           6.2580   42.2321    9.3900 C.ar    1  UNL1        0.0886
      4 N           6.0039   41.7701   11.6553 N.ar    1  UNL1       -0.2238
      5 S           4.6145   42.4777    9.6834 S.2     1  UNL1       -0.0481
      6 C           8.2891   41.4890   10.7728 C.ar    1  UNL1        0.0183
      7 C           9.0817   41.2429    9.6416 C.ar    1  UNL1        0.0015
      8 C          10.4398   40.9405    9.7784 C.ar    1  UNL1        0.0000
      9 C          11.0202   40.8924   11.0482 C.ar    1  UNL1        0.0000
     10 C          10.2439   41.1514   12.1805 C.ar    1  UNL1        0.0000
     11 C           8.8863   41.4539   12.0422 C.ar    1  UNL1        0.0015
     12 O           1.9335   42.3220   10.6154 O.2     1  UNL1       -0.2663
     13 C           2.2564   42.2071   11.8282 C.2     1  UNL1        0.2883
     14 N           3.6312   42.0867   12.2123 N.am    1  UNL1       -0.2580
     15 H           3.8293   42.0000   13.1727 H       1  UNL1        0.1572
     16 O           1.4286   41.9974   14.1288 O.2     1  UNL1       -0.3487
     17 C           1.2102   42.1972   12.8547 C.ar    1  UNL1        0.2302
     18 C          -0.1400   42.3932   12.6418 C.ar    1  UNL1        0.0690
     19 C          -0.6751   42.2865   13.9160 C.ar    1  UNL1        0.1440
     20 N           0.3168   42.0444   14.7963 N.ar    1  UNL1       -0.0751
     21 O           7.0711   43.7735    7.7978 O.2     1  UNL1       -0.2860
     22 C           6.9249   42.5611    8.1126 C.2     1  UNL1        0.2030
     23 C           7.3938   41.5113    7.1809 C.ar    1  UNL1        0.0395
     24 C           8.5927   41.6888    6.4732 C.ar    1  UNL1        0.0032
     25 C           9.0574   40.6977    5.6037 C.ar    1  UNL1        0.0001
     26 C           8.3296   39.5169    5.4376 C.ar    1  UNL1        0.0000
     27 C           7.1387   39.3260    6.1425 C.ar    1  UNL1        0.0001
     28 C           6.6750   40.3173    7.0119 C.ar    1  UNL1        0.0032
@<TRIPOS>BOND
     1    13    14   am
     2    13    17    1
     3     1     5   ar
     4     2     4   ar
     5     2     6    1
     6     3     5   ar
     7     3    22    1
     8    22    23    1
     9    24    25   ar
    10    26    27   ar
    11    28    23   ar
    12     7     8   ar
    13     9    10   ar
    14    11     6   ar
    15    17    16   ar
    16    18    19   ar
    17    14     1    1
    18    20    16   ar
    19    13    12    2
    20     1     4   ar
    21     2     3   ar
    22    22    21    2
    23    23    24   ar
    24    25    26   ar
    25    27    28   ar
    26     6     7   ar
    27     8     9   ar
    28    10    11   ar
    29    17    18   ar
    30    19    20   ar
    31    14    15    1
@<TRIPOS>MOLECULE
MolPort-003-172-299 10253880 CSSS03437139166 MCULE-1331929296 PubChem-18587237 SRKPZIIQFUHGMN-UHFFFAOYSA-N ZINC000010253880 ZINC10253880
 28 31 0 0 0
SMALL
GASTEIGER

@<TRIPOS>ATOM
      1 C          11.1731   40.3778    8.4500 C.ar    1  UNL1        0.1659
      2 C          11.9830   38.4064    9.1777 C.ar    1  UNL1        0.0923
      3 C          13.1122   38.8804    8.4840 C.ar    1  UNL1        0.0886
      4 N          10.9148   39.2522    9.1488 N.ar    1  UNL1       -0.2238
      5 S          12.7321   40.3926    7.8389 S.2     1  UNL1       -0.0481
      6 C          11.8770   37.0937    9.8522 C.ar    1  UNL1        0.0183
      7 C          12.9232   36.1669    9.7298 C.ar    1  UNL1        0.0015
      8 C          12.8619   34.9359   10.3894 C.ar    1  UNL1        0.0000
      9 C          11.7578   34.6249   11.1868 C.ar    1  UNL1        0.0000
     10 C          10.7177   35.5468   11.3285 C.ar    1  UNL1        0.0000
     11 C          10.7805   36.7774   10.6687 C.ar    1  UNL1        0.0015
     12 O           9.5270   41.6243   10.4839 O.2     1  UNL1       -0.2663
     13 C           9.4379   42.0284    9.2936 C.2     1  UNL1        0.2883
     14 N          10.2334   41.4392    8.2581 N.am    1  UNL1       -0.2580
     15 H          10.1252   41.7914    7.3452 H       1  UNL1        0.1572
     16 O           8.6274   44.3421    9.4032 O.2     1  UNL1       -0.3487
     17 C           8.5083   43.1141    8.9687 C.ar    1  UNL1        0.2302
     18 C           7.3861   43.0123    8.1707 C.ar    1  UNL1        0.0690
     19 C           6.8728   44.2998    8.1891 C.ar    1  UNL1        0.1440
     20 N           7.6608   45.0820    8.9537 N.ar    1  UNL1       -0.0751
     21 O          14.7117   37.3682    7.6309 O.2     1  UNL1       -0.2860
     22 C          14.4670   38.2898    8.4563 C.2     1  UNL1        0.2030
     23 C          15.5302   38.7252    9.3891 C.ar    1  UNL1        0.0395
     24 C          16.0622   37.8161   10.3167 C.ar    1  UNL1        0.0032
     25 C          17.0796   38.2080   11.1916 C.ar    1  UNL1        0.0001
     26 C          17.5786   39.5120   11.1434 C.ar    1  UNL1        0.0000
     27 C          17.0620   40.4232   10.2191 C.ar    1  UNL1        0.0001
     28 C          16.0449   40.0305    9.3446 C.ar    1  UNL1        0.0032
@<TRIPOS>BOND
     1    13    14   am
     2    13    17    1
     3     1     5   ar
     4     2     4   ar
     5     2     6    1
     6     3     5   ar
     7     3    22    1
     8    22    23    1
     9    24    25   ar
    10    26    27   ar
    11    28    23   ar
    12     7     8   ar
    13     9    10   ar
    14    11     6   ar
    15    17    16   ar
    16    18    19   ar
    17    14     1    1
    18    20    16   ar
    19    13    12    2
    20     1     4   ar
    21     2     3   ar
    22    22    21    2
    23    23    24   ar
    24    25    26   ar
    25    27    28   ar
    26     6     7   ar
    27     8     9   ar
    28    10    11   ar
    29    17    18   ar
    30    19    20   ar
    31    14    15    1
@<TRIPOS>MOLECULE
MolPort-003-172-299 10253880 CSSS03437139166 MCULE-1331929296 PubChem-18587237 SRKPZIIQFUHGMN-UHFFFAOYSA-N ZINC000010253880 ZINC10253880
 28 31 0 0 0
SMALL
GASTEIGER

@<TRIPOS>ATOM
      1 C          11.4931   41.2033    7.6795 C.ar    1  UNL1        0.1659
      2 C          13.5562   42.0739    7.4399 C.ar    1  UNL1        0.0923
      3 C          13.8344   41.0737    8.3903 C.ar    1  UNL1        0.0886
      4 N          12.2499   42.1308    7.0558 N.ar    1  UNL1       -0.2238
      5 S          12.3951   40.2608    8.7295 S.2     1  UNL1       -0.0481
      6 C          14.5341   43.0470    6.9049 C.ar    1  UNL1        0.0183
      7 C          14.2066   43.8032    5.7695 C.ar    1  UNL1        0.0015
      8 C          15.0993   44.7557    5.2691 C.ar    1  UNL1        0.0000
      9 C          16.3239   44.9681    5.9069 C.ar    1  UNL1        0.0000
     10 C          16.6535   44.2319    7.0475 C.ar    1  UNL1        0.0000
     11 C          15.7599   43.2802    7.5469 C.ar    1  UNL1        0.0015
     12 O          10.2306   39.4404    5.7564 O.2     1  UNL1       -0.2663
     13 C           9.5047   40.1503    6.5028 C.2     1  UNL1        0.2883
     14 N          10.0886   41.0350    7.4664 N.am    1  UNL1       -0.2580
     15 H           9.4769   41.5677    8.0243 H       1  UNL1        0.1572
     16 O           7.4152   39.1552    5.6871 O.2     1  UNL1       -0.3487
     17 C           8.0465   40.0671    6.3805 C.ar    1  UNL1        0.2302
     18 C           7.1313   40.9196    6.9656 C.ar    1  UNL1        0.0690
     19 C           5.9144   40.4094    6.5411 C.ar    1  UNL1        0.1440
     20 N           6.1317   39.3311    5.7617 N.ar    1  UNL1       -0.0751
     21 O          16.1942   41.1013    8.3300 O.2     1  UNL1       -0.2860
     22 C          15.1589   40.6464    8.8885 C.2     1  UNL1        0.2030
     23 C          15.3030   39.6778    9.9980 C.ar    1  UNL1        0.0395
     24 C          16.4645   38.8963   10.0978 C.ar    1  UNL1        0.0032
     25 C          16.6225   37.9905   11.1507 C.ar    1  UNL1        0.0001
     26 C          15.6221   37.8613   12.1172 C.ar    1  UNL1        0.0000
     27 C          14.4651   38.6395   12.0322 C.ar    1  UNL1        0.0001
     28 C          14.3080   39.5451   10.9793 C.ar    1  UNL1        0.0032
@<TRIPOS>BOND
     1    13    14   am
     2    13    17    1
     3     1     5   ar
     4     2     4   ar
     5     2     6    1
     6     3     5   ar
     7     3    22    1
     8    22    23    1
     9    24    25   ar
    10    26    27   ar
    11    28    23   ar
    12     7     8   ar
    13     9    10   ar
    14    11     6   ar
    15    17    16   ar
    16    18    19   ar
    17    14     1    1
    18    20    16   ar
    19    13    12    2
    20     1     4   ar
    21     2     3   ar
    22    22    21    2
    23    23    24   ar
    24    25    26   ar
    25    27    28   ar
    26     6     7   ar
    27     8     9   ar
    28    10    11   ar
    29    17    18   ar
    30    19    20   ar
    31    14    15    1
@<TRIPOS>MOLECULE
MolPort-003-172-299 10253880 CSSS03437139166 MCULE-1331929296 PubChem-18587237 SRKPZIIQFUHGMN-UHFFFAOYSA-N ZINC000010253880 ZINC10253880
 28 31 0 0 0
SMALL
GASTEIGER

@<TRIPOS>ATOM
      1 C          10.8685   41.9575    8.2663 C.ar    1  UNL1        0.1659
      2 C          13.0567   42.0981    7.7528 C.ar    1  UNL1        0.0923
      3 C          13.0984   41.0200    8.6567 C.ar    1  UNL1        0.0886
      4 N          11.8089   42.6061    7.5472 N.ar    1  UNL1       -0.2238
      5 S          11.5241   40.7207    9.1854 S.2     1  UNL1       -0.0481
      6 C          14.2299   42.7115    7.0920 C.ar    1  UNL1        0.0183
      7 C          14.1011   43.2271    5.7935 C.ar    1  UNL1        0.0015
      8 C          15.1857   43.8453    5.1644 C.ar    1  UNL1        0.0000
      9 C          16.4067   43.9632    5.8330 C.ar    1  UNL1        0.0000
     10 C          16.5415   43.4676    7.1321 C.ar    1  UNL1        0.0000
     11 C          15.4562   42.8500    7.7601 C.ar    1  UNL1        0.0015
     12 O           9.5022   43.8705    9.9616 O.2     1  UNL1       -0.2663
     13 C           8.8379   43.2333    9.1008 C.2     1  UNL1        0.2883
     14 N           9.4747   42.2786    8.2433 N.am    1  UNL1       -0.2580
     15 H           8.9101   41.8078    7.5884 H       1  UNL1        0.1572
     16 O           6.8658   44.6310    8.6776 O.2     1  UNL1       -0.3487
     17 C           7.3973   43.4744    8.9789 C.ar    1  UNL1        0.2302
     18 C           6.3980   42.5387    9.1590 C.ar    1  UNL1        0.0690
     19 C           5.2422   43.2695    8.9322 C.ar    1  UNL1        0.1440
     20 N           5.5716   44.5439    8.6409 N.ar    1  UNL1       -0.0751
     21 O          15.4121   40.5525    8.6806 O.2     1  UNL1       -0.2860
     22 C          14.2524   40.1521    8.9727 C.2     1  UNL1        0.2030
     23 C          14.0829   38.8174    9.5890 C.ar    1  UNL1        0.0395
     24 C          14.2269   38.6644   10.9767 C.ar    1  UNL1        0.0032
     25 C          14.0515   37.4133   11.5750 C.ar    1  UNL1        0.0001
     26 C          13.7252   36.3037   10.7913 C.ar    1  UNL1        0.0000
     27 C          13.5719   36.4456    9.4101 C.ar    1  UNL1        0.0001
     28 C          13.7472   37.6970    8.8127 C.ar    1  UNL1        0.0032
@<TRIPOS>BOND
     1    13    14   am
     2    13    17    1
     3     1     5   ar
     4     2     4   ar
     5     2     6    1
     6     3     5   ar
     7     3    22    1
     8    22    23    1
     9    24    25   ar
    10    26    27   ar
    11    28    23   ar
    12     7     8   ar
    13     9    10   ar
    14    11     6   ar
    15    17    16   ar
    16    18    19   ar
    17    14     1    1
    18    20    16   ar
    19    13    12    2
    20     1     4   ar
    21     2     3   ar
    22    22    21    2
    23    23    24   ar
    24    25    26   ar
    25    27    28   ar
    26     6     7   ar
    27     8     9   ar
    28    10    11   ar
    29    17    18   ar
    30    19    20   ar
    31    14    15    1
@<TRIPOS>MOLECULE
MolPort-003-172-299 10253880 CSSS03437139166 MCULE-1331929296 PubChem-18587237 SRKPZIIQFUHGMN-UHFFFAOYSA-N ZINC000010253880 ZINC10253880
 28 31 0 0 0
SMALL
GASTEIGER

@<TRIPOS>ATOM
      1 C          11.6905   39.3584    8.3086 C.ar    1  UNL1        0.1659
      2 C          13.7736   40.1153    8.7077 C.ar    1  UNL1        0.0923
      3 C          13.7061   39.0970    9.6770 C.ar    1  UNL1        0.0886
      4 N          12.6445   40.2457    7.9557 N.ar    1  UNL1       -0.2238
      5 S          12.1913   38.3631    9.5587 S.2     1  UNL1       -0.0481
      6 C          14.9147   41.0354    8.5059 C.ar    1  UNL1        0.0183
      7 C          16.0999   40.8364    9.2298 C.ar    1  UNL1        0.0015
      8 C          17.2038   41.6700    9.0274 C.ar    1  UNL1        0.0000
      9 C          17.1358   42.7041    8.0906 C.ar    1  UNL1        0.0000
     10 C          15.9660   42.9013    7.3528 C.ar    1  UNL1        0.0000
     11 C          14.8632   42.0670    7.5559 C.ar    1  UNL1        0.0015
     12 O           9.4381   41.1359    8.7184 O.2     1  UNL1       -0.2663
     13 C           9.3168   40.1707    7.9173 C.2     1  UNL1        0.2883
     14 N          10.4055   39.2687    7.6864 N.am    1  UNL1       -0.2580
     15 H          10.2582   38.5311    7.0512 H       1  UNL1        0.1572
     16 O           7.8087   38.9933    6.3806 O.2     1  UNL1       -0.3487
     17 C           8.0453   39.9719    7.2157 C.ar    1  UNL1        0.2302
     18 C           6.9232   40.7691    7.3244 C.ar    1  UNL1        0.0690
     19 C           6.0201   40.1540    6.4715 C.ar    1  UNL1        0.1440
     20 N           6.6003   39.0722    5.9143 N.ar    1  UNL1       -0.0751
     21 O          14.8533   38.9763   11.7366 O.2     1  UNL1       -0.2860
     22 C          14.7997   38.5953   10.5356 C.2     1  UNL1        0.2030
     23 C          15.8484   37.6884   10.0181 C.ar    1  UNL1        0.0395
     24 C          17.1106   37.6568   10.6308 C.ar    1  UNL1        0.0032
     25 C          18.1049   36.7920   10.1644 C.ar    1  UNL1        0.0001
     26 C          17.8443   35.9463    9.0834 C.ar    1  UNL1        0.0000
     27 C          16.5892   35.9637    8.4704 C.ar    1  UNL1        0.0001
     28 C          15.5955   36.8285    8.9376 C.ar    1  UNL1        0.0032
@<TRIPOS>BOND
     1    13    14   am
     2    13    17    1
     3     1     5   ar
     4     2     4   ar
     5     2     6    1
     6     3     5   ar
     7     3    22    1
     8    22    23    1
     9    24    25   ar
    10    26    27   ar
    11    28    23   ar
    12     7     8   ar
    13     9    10   ar
    14    11     6   ar
    15    17    16   ar
    16    18    19   ar
    17    14     1    1
    18    20    16   ar
    19    13    12    2
    20     1     4   ar
    21     2     3   ar
    22    22    21    2
    23    23    24   ar
    24    25    26   ar
    25    27    28   ar
    26     6     7   ar
    27     8     9   ar
    28    10    11   ar
    29    17    18   ar
    30    19    20   ar
    31    14    15    1
@<TRIPOS>MOLECULE
MolPort-003-172-299 10253880 CSSS03437139166 MCULE-1331929296 PubChem-18587237 SRKPZIIQFUHGMN-UHFFFAOYSA-N ZINC000010253880 ZINC10253880
 28 31 0 0 0
SMALL
GASTEIGER

@<TRIPOS>ATOM
      1 C          10.2609   41.5009    8.5681 C.ar    1  UNL1        0.1659
      2 C          12.0427   40.3335    9.2989 C.ar    1  UNL1        0.0923
      3 C          12.6603   41.0919    8.2867 C.ar    1  UNL1        0.0886
      4 N          10.7089   40.5745    9.4416 N.ar    1  UNL1       -0.2238
      5 S          11.4853   42.0762    7.5811 S.2     1  UNL1       -0.0481
      6 C          12.7090   39.3088   10.1328 C.ar    1  UNL1        0.0183
      7 C          12.5584   37.9513    9.8119 C.ar    1  UNL1        0.0015
      8 C          13.2095   36.9679   10.5625 C.ar    1  UNL1        0.0000
      9 C          14.0264   37.3343   11.6349 C.ar    1  UNL1        0.0000
     10 C          14.1961   38.6840   11.9534 C.ar    1  UNL1        0.0000
     11 C          13.5448   39.6661   11.2019 C.ar    1  UNL1        0.0015
     12 O           9.1445   43.8619    9.8249 O.2     1  UNL1       -0.2663
     13 C           8.3923   43.1245    9.1332 C.2     1  UNL1        0.2883
     14 N           8.9041   41.9483    8.4954 N.am    1  UNL1       -0.2580
     15 H           8.2743   41.4068    7.9669 H       1  UNL1        0.1572
     16 O           6.5446   44.6738    8.6773 O.2     1  UNL1       -0.3487
     17 C           6.9778   43.4777    8.9819 C.ar    1  UNL1        0.2302
     18 C           5.9051   42.6217    9.1339 C.ar    1  UNL1        0.0690
     19 C           4.8149   43.4415    8.8874 C.ar    1  UNL1        0.1440
     20 N           5.2487   44.6879    8.6122 N.ar    1  UNL1       -0.0751
     21 O          14.8698   40.2658    8.3796 O.2     1  UNL1       -0.2860
     22 C          14.1042   41.1872    7.9852 C.2     1  UNL1        0.2030
     23 C          14.6791   42.3456    7.2657 C.ar    1  UNL1        0.0395
     24 C          15.8942   42.9022    7.6939 C.ar    1  UNL1        0.0032
     25 C          16.4584   43.9848    7.0129 C.ar    1  UNL1        0.0001
     26 C          15.8149   44.5179    5.8934 C.ar    1  UNL1        0.0000
     27 C          14.6088   43.9672    5.4535 C.ar    1  UNL1        0.0001
     28 C          14.0455   42.8846    6.1349 C.ar    1  UNL1        0.0032
@<TRIPOS>BOND
     1    13    14   am
     2    13    17    1
     3     1     5   ar
     4     2     4   ar
     5     2     6    1
     6     3     5   ar
     7     3    22    1
     8    22    23    1
     9    24    25   ar
    10    26    27   ar
    11    28    23   ar
    12     7     8   ar
    13     9    10   ar
    14    11     6   ar
    15    17    16   ar
    16    18    19   ar
    17    14     1    1
    18    20    16   ar
    19    13    12    2
    20     1     4   ar
    21     2     3   ar
    22    22    21    2
    23    23    24   ar
    24    25    26   ar
    25    27    28   ar
    26     6     7   ar
    27     8     9   ar
    28    10    11   ar
    29    17    18   ar
    30    19    20   ar
    31    14    15    1
