@<TRIPOS>MOLECULE
MolPort-002-019-554 13494384 CSSS00132527814 ChemDiv-Y031-1521 LN00990541 MCULE-9513418977 PubChem-3160787 ZINC000013494384
 32 34 0 0 0
SMALL
GASTEIGER

@<TRIPOS>ATOM
      1 C           9.6739   41.7751    8.0802 C.ar    1  UNL1        0.0506
      2 C           8.8859   42.4932    7.1679 C.ar    1  UNL1        0.0160
      3 C           7.5146   42.6491    7.3887 C.ar    1  UNL1        0.0212
      4 C           6.9177   42.0874    8.5222 C.ar    1  UNL1        0.1220
      5 C           7.7011   41.3737    9.4349 C.ar    1  UNL1        0.0212
      6 C           9.0720   41.2173    9.2131 C.ar    1  UNL1        0.0160
      7 C          12.1446   42.3373    8.4879 C.2     1  UNL1        0.2538
      8 O          11.8926   43.2378    9.3318 O.2     1  UNL1       -0.2697
      9 N          11.0818   41.5860    7.8849 N.am    1  UNL1       -0.2803
     10 H          11.3474   40.8633    7.2713 H       1  UNL1        0.1552
     11 C          13.5451   42.0179    8.1460 C.ar    1  UNL1        0.1073
     12 C          14.3583   42.7030    7.2609 C.ar    1  UNL1        0.1591
     13 C          14.0309   43.9496    6.5140 C.3     1  UNL1        0.0755
     14 C          14.3255   40.9286    8.5298 C.ar    1  UNL1        0.1269
     15 O          15.4952   42.0615    7.1447 O.2     1  UNL1       -0.3576
     16 N          15.5114   40.9945    7.8890 N.ar    1  UNL1       -0.0772
     17 C          14.0189   39.8773    9.5208 C.ar    1  UNL1        0.0211
     18 C          13.1033   38.8666    9.1934 C.ar    1  UNL1        0.0016
     19 C          12.8304   37.8363   10.0984 C.ar    1  UNL1        0.0000
     20 C          13.4817   37.8014   11.3340 C.ar    1  UNL1        0.0000
     21 C          14.4086   38.7940   11.6621 C.ar    1  UNL1        0.0000
     22 C          14.6798   39.8239   10.7565 C.ar    1  UNL1        0.0016
     23 O           4.8995   43.7130    9.1655 O.2     1  UNL1       -0.1530
     24 O           4.4528   41.9398    7.5356 O.2     1  UNL1       -0.1530
     25 S           5.1934   42.2851    8.7968 S.O2    1  UNL1        0.0602
     26 N           4.6591   41.2157   10.0520 N.3     1  UNL1       -0.1793
     27 H           3.6431   41.1304   10.0235 H       1  UNL1        0.1488
     28 C           5.0706   41.7733   11.3310 C.3     1  UNL1        0.0940
     29 C           6.1285   40.8893   11.9697 C.3     1  UNL1        0.0509
     30 C           7.3921   41.6812   12.2679 C.3     1  UNL1        0.1438
     31 C           9.5305   41.3800   12.7204 C.3     1  UNL1        0.1741
     32 O           8.2568   40.9299   13.0649 O.3     1  UNL1       -0.3511
@<TRIPOS>BOND
     1    11     7    1
     2    12    15   ar
     3    13    12    1
     4    14    17    1
     5    14    11   ar
     6    18    19   ar
     7    20    21   ar
     8    22    17   ar
     9     7     9   am
    10     2     3   ar
    11     4     5   ar
    12     6     1   ar
    13    28    26    1
    14    28    29    1
    15    29    30    1
    16    30    32    1
    17    31    32    1
    18    15    16   ar
    19     9     1    1
    20    25     4    1
    21    25    26    1
    22    11    12   ar
    23    14    16   ar
    24    17    18   ar
    25    19    20   ar
    26    21    22   ar
    27     7     8    2
    28     1     2   ar
    29     3     4   ar
    30     5     6   ar
    31    25    23    2
    32    25    24    2
    33     9    10    1
    34    26    27    1
@<TRIPOS>MOLECULE
MolPort-002-019-554 13494384 CSSS00132527814 ChemDiv-Y031-1521 LN00990541 MCULE-9513418977 PubChem-3160787 ZINC000013494384
 32 34 0 0 0
SMALL
GASTEIGER

@<TRIPOS>ATOM
      1 C          10.9686   42.0356    8.9621 C.ar    1  UNL1        0.0506
      2 C          10.2680   41.6066    7.8245 C.ar    1  UNL1        0.0160
      3 C           9.0063   42.1321    7.5321 C.ar    1  UNL1        0.0212
      4 C           8.4321   43.0898    8.3746 C.ar    1  UNL1        0.1220
      5 C           9.1294   43.5215    9.5076 C.ar    1  UNL1        0.0212
      6 C          10.3905   42.9951    9.8000 C.ar    1  UNL1        0.0160
      7 C          13.0408   40.5815    8.5400 C.2     1  UNL1        0.2538
      8 O          12.6370   40.1751    7.4182 O.2     1  UNL1       -0.2697
      9 N          12.2608   41.5147    9.3006 N.am    1  UNL1       -0.2803
     10 H          12.6550   41.8313   10.1454 H       1  UNL1        0.1552
     11 C          14.3472   40.1318    9.0610 C.ar    1  UNL1        0.1073
     12 C          14.5878   39.0132    9.8389 C.ar    1  UNL1        0.1591
     13 C          13.6025   37.9793   10.2624 C.3     1  UNL1        0.0755
     14 C          15.5914   40.7563    8.9939 C.ar    1  UNL1        0.1269
     15 O          15.8506   39.0030   10.1892 O.2     1  UNL1       -0.3576
     16 N          16.4821   40.0310    9.7023 N.ar    1  UNL1       -0.0772
     17 C          15.9783   41.9638    8.2366 C.ar    1  UNL1        0.0211
     18 C          15.1263   42.4527    7.2355 C.ar    1  UNL1        0.0016
     19 C          15.4501   43.6190    6.5356 C.ar    1  UNL1        0.0000
     20 C          16.6233   44.3136    6.8408 C.ar    1  UNL1        0.0000
     21 C          17.4696   43.8443    7.8486 C.ar    1  UNL1        0.0000
     22 C          17.1449   42.6776    8.5469 C.ar    1  UNL1        0.0016
     23 O           6.6147   44.9967    8.8101 O.2     1  UNL1       -0.1530
     24 O           6.7844   44.0878    6.5417 O.2     1  UNL1       -0.1530
     25 S           6.8457   43.7482    8.0043 S.O2    1  UNL1        0.0602
     26 N           5.6151   42.5754    8.3430 N.3     1  UNL1       -0.1793
     27 H           5.0236   42.4488    7.5217 H       1  UNL1        0.1488
     28 C           4.8149   43.0632    9.4555 C.3     1  UNL1        0.0940
     29 C           4.7954   42.0357   10.5745 C.3     1  UNL1        0.0509
     30 C           3.4716   42.0703   11.3224 C.3     1  UNL1        0.1438
     31 C           2.5276   41.0913    9.5849 C.3     1  UNL1        0.1741
     32 O           2.4118   42.1988   10.4237 O.3     1  UNL1       -0.3511
@<TRIPOS>BOND
     1    11     7    1
     2    12    15   ar
     3    13    12    1
     4    14    17    1
     5    14    11   ar
     6    18    19   ar
     7    20    21   ar
     8    22    17   ar
     9     7     9   am
    10     2     3   ar
    11     4     5   ar
    12     6     1   ar
    13    28    26    1
    14    28    29    1
    15    29    30    1
    16    30    32    1
    17    31    32    1
    18    15    16   ar
    19     9     1    1
    20    25     4    1
    21    25    26    1
    22    11    12   ar
    23    14    16   ar
    24    17    18   ar
    25    19    20   ar
    26    21    22   ar
    27     7     8    2
    28     1     2   ar
    29     3     4   ar
    30     5     6   ar
    31    25    23    2
    32    25    24    2
    33     9    10    1
    34    26    27    1
@<TRIPOS>MOLECULE
MolPort-002-019-554 13494384 CSSS00132527814 ChemDiv-Y031-1521 LN00990541 MCULE-9513418977 PubChem-3160787 ZINC000013494384
 32 34 0 0 0
SMALL
GASTEIGER

@<TRIPOS>ATOM
      1 C          11.9530   41.1881    7.0855 C.ar    1  UNL1        0.0506
      2 C          10.9946   41.3292    8.1005 C.ar    1  UNL1        0.0160
      3 C           9.6383   41.1367    7.8229 C.ar    1  UNL1        0.0212
      4 C           9.2270   40.8032    6.5283 C.ar    1  UNL1        0.1220
      5 C          10.1804   40.6589    5.5151 C.ar    1  UNL1        0.0212
      6 C          11.5363   40.8525    5.7930 C.ar    1  UNL1        0.0160
      7 C          14.1168   42.5679    7.0538 C.2     1  UNL1        0.2538
      8 O          13.5561   43.6018    6.6031 O.2     1  UNL1       -0.2697
      9 N          13.3524   41.3855    7.3282 N.am    1  UNL1       -0.2803
     10 H          13.8407   40.6287    7.7257 H       1  UNL1        0.1552
     11 C          15.5642   42.5814    7.3458 C.ar    1  UNL1        0.1073
     12 C          16.5266   43.3591    6.7268 C.ar    1  UNL1        0.1591
     13 C          16.3115   44.4018    5.6849 C.3     1  UNL1        0.0755
     14 C          16.3035   41.7690    8.2037 C.ar    1  UNL1        0.1269
     15 O          17.7066   43.0182    7.1837 O.2     1  UNL1       -0.3576
     16 N          17.6123   42.0693    8.0687 N.ar    1  UNL1       -0.0772
     17 C          15.8163   40.7777    9.1843 C.ar    1  UNL1        0.0211
     18 C          16.7408   39.9978    9.8942 C.ar    1  UNL1        0.0016
     19 C          16.3053   39.0842   10.8590 C.ar    1  UNL1        0.0000
     20 C          14.9412   38.9529   11.1310 C.ar    1  UNL1        0.0000
     21 C          14.0137   39.7381   10.4416 C.ar    1  UNL1        0.0000
     22 C          14.4507   40.6504    9.4766 C.ar    1  UNL1        0.0016
     23 O           7.0101   41.6965    5.3381 O.2     1  UNL1       -0.1530
     24 O           7.3504   39.2724    5.4303 O.2     1  UNL1       -0.1530
     25 S           7.5212   40.5620    6.1826 S.O2    1  UNL1        0.0602
     26 N           6.6190   40.4549    7.6588 N.3     1  UNL1       -0.1793
     27 H           6.0292   39.6229    7.6432 H       1  UNL1        0.1488
     28 C           5.7894   41.6443    7.7728 C.3     1  UNL1        0.0940
     29 C           6.4564   42.6607    8.6842 C.3     1  UNL1        0.0509
     30 C           5.9635   44.0676    8.3835 C.3     1  UNL1        0.1438
     31 C           3.9986   44.8906    7.8091 C.3     1  UNL1        0.1741
     32 O           4.6571   44.2314    8.8460 O.3     1  UNL1       -0.3511
@<TRIPOS>BOND
     1    11     7    1
     2    12    15   ar
     3    13    12    1
     4    14    17    1
     5    14    11   ar
     6    18    19   ar
     7    20    21   ar
     8    22    17   ar
     9     7     9   am
    10     2     3   ar
    11     4     5   ar
    12     6     1   ar
    13    28    26    1
    14    28    29    1
    15    29    30    1
    16    30    32    1
    17    31    32    1
    18    15    16   ar
    19     9     1    1
    20    25     4    1
    21    25    26    1
    22    11    12   ar
    23    14    16   ar
    24    17    18   ar
    25    19    20   ar
    26    21    22   ar
    27     7     8    2
    28     1     2   ar
    29     3     4   ar
    30     5     6   ar
    31    25    23    2
    32    25    24    2
    33     9    10    1
    34    26    27    1
@<TRIPOS>MOLECULE
MolPort-002-019-554 13494384 CSSS00132527814 ChemDiv-Y031-1521 LN00990541 MCULE-9513418977 PubChem-3160787 ZINC000013494384
 32 34 0 0 0
SMALL
GASTEIGER

@<TRIPOS>ATOM
      1 C          11.2759   40.2535    7.4042 C.ar    1  UNL1        0.0506
      2 C          10.4227   39.1935    7.7465 C.ar    1  UNL1        0.0160
      3 C           9.0584   39.2609    7.4500 C.ar    1  UNL1        0.0212
      4 C           8.5339   40.3888    6.8103 C.ar    1  UNL1        0.1220
      5 C           9.3825   41.4457    6.4652 C.ar    1  UNL1        0.0212
      6 C          10.7462   41.3782    6.7628 C.ar    1  UNL1        0.0160
      7 C          13.3175   40.6856    8.8982 C.2     1  UNL1        0.2538
      8 O          12.6321   41.1212    9.8611 O.2     1  UNL1       -0.2697
      9 N          12.6789   40.2259    7.6988 N.am    1  UNL1       -0.2803
     10 H          13.2668   39.8514    7.0036 H       1  UNL1        0.1552
     11 C          14.7870   40.6037    9.0163 C.ar    1  UNL1        0.1073
     12 C          15.5075   39.6985    9.7750 C.ar    1  UNL1        0.1591
     13 C          14.9704   38.5661   10.5802 C.3     1  UNL1        0.0755
     14 C          15.7668   41.4513    8.5023 C.ar    1  UNL1        0.1269
     15 O          16.7800   40.0043    9.7062 O.2     1  UNL1       -0.3576
     16 N          16.9729   41.0481    8.9539 N.ar    1  UNL1       -0.0772
     17 C          15.6113   42.5747    7.5561 C.ar    1  UNL1        0.0211
     18 C          16.6583   43.4946    7.3995 C.ar    1  UNL1        0.0016
     19 C          16.5517   44.5406    6.4778 C.ar    1  UNL1        0.0000
     20 C          15.4013   44.6671    5.6951 C.ar    1  UNL1        0.0000
     21 C          14.3602   43.7453    5.8312 C.ar    1  UNL1        0.0000
     22 C          14.4680   42.7005    6.7538 C.ar    1  UNL1        0.0016
     23 O           6.5748   41.5296    5.3997 O.2     1  UNL1       -0.1530
     24 O           6.3686   39.1410    5.9021 O.2     1  UNL1       -0.1530
     25 S           6.8183   40.4705    6.4391 S.O2    1  UNL1        0.0602
     26 N           5.9094   40.8136    7.8746 N.3     1  UNL1       -0.1793
     27 H           4.9160   40.8676    7.6494 H       1  UNL1        0.1488
     28 C           6.3634   42.0889    8.4071 C.3     1  UNL1        0.0940
     29 C           7.0931   41.8753    9.7225 C.3     1  UNL1        0.0509
     30 C           6.1208   41.4980   10.8294 C.3     1  UNL1        0.1438
     31 C           8.0812   41.8644   11.7735 C.3     1  UNL1        0.1741
     32 O           6.7837   41.4400   12.0561 O.3     1  UNL1       -0.3511
@<TRIPOS>BOND
     1    11     7    1
     2    12    15   ar
     3    13    12    1
     4    14    17    1
     5    14    11   ar
     6    18    19   ar
     7    20    21   ar
     8    22    17   ar
     9     7     9   am
    10     2     3   ar
    11     4     5   ar
    12     6     1   ar
    13    28    26    1
    14    28    29    1
    15    29    30    1
    16    30    32    1
    17    31    32    1
    18    15    16   ar
    19     9     1    1
    20    25     4    1
    21    25    26    1
    22    11    12   ar
    23    14    16   ar
    24    17    18   ar
    25    19    20   ar
    26    21    22   ar
    27     7     8    2
    28     1     2   ar
    29     3     4   ar
    30     5     6   ar
    31    25    23    2
    32    25    24    2
    33     9    10    1
    34    26    27    1
@<TRIPOS>MOLECULE
MolPort-002-019-554 13494384 CSSS00132527814 ChemDiv-Y031-1521 LN00990541 MCULE-9513418977 PubChem-3160787 ZINC000013494384
 32 34 0 0 0
SMALL
GASTEIGER

@<TRIPOS>ATOM
      1 C          10.6768   41.4299    9.3226 C.ar    1  UNL1        0.0506
      2 C          11.7319   40.7319    9.9297 C.ar    1  UNL1        0.0160
      3 C          13.0461   40.9176    9.4917 C.ar    1  UNL1        0.0212
      4 C          13.3181   41.8010    8.4418 C.ar    1  UNL1        0.1220
      5 C          12.2689   42.5004    7.8367 C.ar    1  UNL1        0.0212
      6 C          10.9549   42.3137    8.2744 C.ar    1  UNL1        0.0160
      7 C           8.5074   42.2063   10.4530 C.2     1  UNL1        0.2538
      8 O           8.9570   43.3493   10.7320 O.2     1  UNL1       -0.2697
      9 N           9.3148   41.2607    9.7375 N.am    1  UNL1       -0.2803
     10 H           8.8881   40.4040    9.5067 H       1  UNL1        0.1552
     11 C           7.1239   41.8470   10.8233 C.ar    1  UNL1        0.1073
     12 C           6.7327   41.0216   11.8624 C.ar    1  UNL1        0.1591
     13 C           7.6079   40.3723   12.8781 C.3     1  UNL1        0.0755
     14 C           5.9261   42.1486   10.1776 C.ar    1  UNL1        0.1269
     15 O           5.4330   40.8612   11.8113 O.2     1  UNL1       -0.3576
     16 N           4.9165   41.5204   10.8157 N.ar    1  UNL1       -0.0772
     17 C           5.6972   43.0535    9.0329 C.ar    1  UNL1        0.0211
     18 C           6.6561   43.1313    8.0125 C.ar    1  UNL1        0.0016
     19 C           6.4412   43.9474    6.8977 C.ar    1  UNL1        0.0000
     20 C           5.2583   44.6827    6.7882 C.ar    1  UNL1        0.0000
     21 C           4.2891   44.5982    7.7911 C.ar    1  UNL1        0.0000
     22 C           4.5060   43.7825    8.9055 C.ar    1  UNL1        0.0016
     23 O          15.6628   43.0339    8.7763 O.2     1  UNL1       -0.1530
     24 O          15.7018   40.7209    7.9706 O.2     1  UNL1       -0.1530
     25 S          14.9714   42.0319    7.8934 S.O2    1  UNL1        0.0602
     26 N          14.9876   42.5679    6.2451 N.3     1  UNL1       -0.1793
     27 H          15.7724   42.1426    5.7515 H       1  UNL1        0.1488
     28 C          15.1283   44.0157    6.2384 C.3     1  UNL1        0.0940
     29 C          16.1873   44.4326    5.2318 C.3     1  UNL1        0.0509
     30 C          17.5572   43.9092    5.6344 C.3     1  UNL1        0.1438
     31 C          18.6502   44.1246    7.5390 C.3     1  UNL1        0.1741
     32 O          17.5445   43.4967    6.9675 O.3     1  UNL1       -0.3511
@<TRIPOS>BOND
     1    11     7    1
     2    12    15   ar
     3    13    12    1
     4    14    17    1
     5    14    11   ar
     6    18    19   ar
     7    20    21   ar
     8    22    17   ar
     9     7     9   am
    10     2     3   ar
    11     4     5   ar
    12     6     1   ar
    13    28    26    1
    14    28    29    1
    15    29    30    1
    16    30    32    1
    17    31    32    1
    18    15    16   ar
    19     9     1    1
    20    25     4    1
    21    25    26    1
    22    11    12   ar
    23    14    16   ar
    24    17    18   ar
    25    19    20   ar
    26    21    22   ar
    27     7     8    2
    28     1     2   ar
    29     3     4   ar
    30     5     6   ar
    31    25    23    2
    32    25    24    2
    33     9    10    1
    34    26    27    1
@<TRIPOS>MOLECULE
MolPort-002-019-554 13494384 CSSS00132527814 ChemDiv-Y031-1521 LN00990541 MCULE-9513418977 PubChem-3160787 ZINC000013494384
 32 34 0 0 0
SMALL
GASTEIGER

@<TRIPOS>ATOM
      1 C          11.2770   40.2599    7.4332 C.ar    1  UNL1        0.0506
      2 C          10.3910   39.2689    7.8825 C.ar    1  UNL1        0.0160
      3 C           9.0305   39.3441    7.5711 C.ar    1  UNL1        0.0212
      4 C           8.5424   40.4110    6.8095 C.ar    1  UNL1        0.1220
      5 C           9.4237   41.3987    6.3577 C.ar    1  UNL1        0.0212
      6 C          10.7837   41.3236    6.6701 C.ar    1  UNL1        0.0160
      7 C          13.3084   40.6669    8.9479 C.2     1  UNL1        0.2538
      8 O          12.6173   41.0950    9.9100 O.2     1  UNL1       -0.2697
      9 N          12.6775   40.2229    7.7386 N.am    1  UNL1       -0.2803
     10 H          13.2693   39.8533    7.0440 H       1  UNL1        0.1552
     11 C          14.7767   40.5771    9.0767 C.ar    1  UNL1        0.1073
     12 C          15.4859   39.6898    9.8666 C.ar    1  UNL1        0.1591
     13 C          14.9354   38.5867   10.7027 C.3     1  UNL1        0.0755
     14 C          15.7659   41.4012    8.5428 C.ar    1  UNL1        0.1269
     15 O          16.7611   39.9836    9.7957 O.2     1  UNL1       -0.3576
     16 N          16.9663   41.0025    9.0132 N.ar    1  UNL1       -0.0772
     17 C          15.6244   42.4965    7.5621 C.ar    1  UNL1        0.0211
     18 C          16.6960   43.3764    7.3514 C.ar    1  UNL1        0.0016
     19 C          16.6015   44.3936    6.3967 C.ar    1  UNL1        0.0000
     20 C          15.4382   44.5307    5.6352 C.ar    1  UNL1        0.0000
     21 C          14.3720   43.6480    5.8254 C.ar    1  UNL1        0.0000
     22 C          14.4678   42.6320    6.7809 C.ar    1  UNL1        0.0016
     23 O           6.6019   41.5799    5.3962 O.2     1  UNL1       -0.1530
     24 O           6.3854   39.1834    5.8550 O.2     1  UNL1       -0.1530
     25 S           6.8314   40.5026    6.4200 S.O2    1  UNL1        0.0602
     26 N           5.9066   40.8229    7.8506 N.3     1  UNL1       -0.1793
     27 H           4.9547   41.0854    7.5946 H       1  UNL1        0.1488
     28 C           6.5425   41.9165    8.5686 C.3     1  UNL1        0.0940
     29 C           5.5277   42.6198    9.4540 C.3     1  UNL1        0.0509
     30 C           4.6367   43.5410    8.6352 C.3     1  UNL1        0.1438
     31 C           3.1753   42.1795    9.5725 C.3     1  UNL1        0.1741
     32 O           3.3229   43.4834    9.1019 O.3     1  UNL1       -0.3511
@<TRIPOS>BOND
     1    11     7    1
     2    12    15   ar
     3    13    12    1
     4    14    17    1
     5    14    11   ar
     6    18    19   ar
     7    20    21   ar
     8    22    17   ar
     9     7     9   am
    10     2     3   ar
    11     4     5   ar
    12     6     1   ar
    13    28    26    1
    14    28    29    1
    15    29    30    1
    16    30    32    1
    17    31    32    1
    18    15    16   ar
    19     9     1    1
    20    25     4    1
    21    25    26    1
    22    11    12   ar
    23    14    16   ar
    24    17    18   ar
    25    19    20   ar
    26    21    22   ar
    27     7     8    2
    28     1     2   ar
    29     3     4   ar
    30     5     6   ar
    31    25    23    2
    32    25    24    2
    33     9    10    1
    34    26    27    1
@<TRIPOS>MOLECULE
MolPort-002-019-554 13494384 CSSS00132527814 ChemDiv-Y031-1521 LN00990541 MCULE-9513418977 PubChem-3160787 ZINC000013494384
 32 34 0 0 0
SMALL
GASTEIGER

@<TRIPOS>ATOM
      1 C          11.4242   38.7980    9.2807 C.ar    1  UNL1        0.0506
      2 C          12.0513   37.5442    9.2214 C.ar    1  UNL1        0.0160
      3 C          13.2077   37.2969    9.9666 C.ar    1  UNL1        0.0212
      4 C          13.7491   38.3006   10.7764 C.ar    1  UNL1        0.1220
      5 C          13.1246   39.5505   10.8399 C.ar    1  UNL1        0.0212
      6 C          11.9689   39.7975   10.0938 C.ar    1  UNL1        0.0160
      7 C          10.0193   40.2323    7.6821 C.2     1  UNL1        0.2538
      8 O          10.9347   41.0766    7.4926 O.2     1  UNL1       -0.2697
      9 N          10.2418   39.0934    8.5252 N.am    1  UNL1       -0.2803
     10 H           9.5039   38.4452    8.5924 H       1  UNL1        0.1552
     11 C           8.7198   40.3873    6.9982 C.ar    1  UNL1        0.1073
     12 C           8.4588   40.1698    5.6571 C.ar    1  UNL1        0.1591
     13 C           9.4053   39.6648    4.6235 C.3     1  UNL1        0.0755
     14 C           7.5113   40.8769    7.4906 C.ar    1  UNL1        0.1269
     15 O           7.2184   40.5096    5.4051 O.2     1  UNL1       -0.3576
     16 N           6.6207   40.9379    6.4784 N.ar    1  UNL1       -0.0772
     17 C           7.1529   41.2209    8.8815 C.ar    1  UNL1        0.0211
     18 C           5.8145   41.1323    9.2911 C.ar    1  UNL1        0.0016
     19 C           5.4577   41.4104   10.6141 C.ar    1  UNL1        0.0000
     20 C           6.4395   41.7666   11.5421 C.ar    1  UNL1        0.0000
     21 C           7.7779   41.8403   11.1479 C.ar    1  UNL1        0.0000
     22 C           8.1329   41.5628    9.8245 C.ar    1  UNL1        0.0016
     23 O          15.3358   39.0137   12.8021 O.2     1  UNL1       -0.1530
     24 O          15.1027   36.6211   12.3312 O.2     1  UNL1       -0.1530
     25 S          15.2031   37.9865   11.7118 S.O2    1  UNL1        0.0602
     26 N          16.5972   38.0162   10.6821 N.3     1  UNL1       -0.1793
     27 H          17.1399   37.1623   10.8113 H       1  UNL1        0.1488
     28 C          17.4044   39.1716   11.0418 C.3     1  UNL1        0.0940
     29 C          17.8546   39.9043    9.7892 C.3     1  UNL1        0.0509
     30 C          16.8627   40.9927    9.4091 C.3     1  UNL1        0.1438
     31 C          15.0709   41.4853    8.2195 C.3     1  UNL1        0.1741
     32 O          15.7093   40.4268    8.8642 O.3     1  UNL1       -0.3511
@<TRIPOS>BOND
     1    11     7    1
     2    12    15   ar
     3    13    12    1
     4    14    17    1
     5    14    11   ar
     6    18    19   ar
     7    20    21   ar
     8    22    17   ar
     9     7     9   am
    10     2     3   ar
    11     4     5   ar
    12     6     1   ar
    13    28    26    1
    14    28    29    1
    15    29    30    1
    16    30    32    1
    17    31    32    1
    18    15    16   ar
    19     9     1    1
    20    25     4    1
    21    25    26    1
    22    11    12   ar
    23    14    16   ar
    24    17    18   ar
    25    19    20   ar
    26    21    22   ar
    27     7     8    2
    28     1     2   ar
    29     3     4   ar
    30     5     6   ar
    31    25    23    2
    32    25    24    2
    33     9    10    1
    34    26    27    1
@<TRIPOS>MOLECULE
MolPort-002-019-554 13494384 CSSS00132527814 ChemDiv-Y031-1521 LN00990541 MCULE-9513418977 PubChem-3160787 ZINC000013494384
 32 34 0 0 0
SMALL
GASTEIGER

@<TRIPOS>ATOM
      1 C          11.5565   41.8183    8.0738 C.ar    1  UNL1        0.0506
      2 C          11.2259   41.6648    6.7188 C.ar    1  UNL1        0.0160
      3 C           9.9211   41.9047    6.2786 C.ar    1  UNL1        0.0212
      4 C           8.9344   42.2983    7.1884 C.ar    1  UNL1        0.1220
      5 C           9.2617   42.4550    8.5392 C.ar    1  UNL1        0.0212
      6 C          10.5662   42.2141    8.9790 C.ar    1  UNL1        0.0160
      7 C          14.1050   41.6498    7.8215 C.2     1  UNL1        0.2538
      8 O          14.0995   42.0183    6.6171 O.2     1  UNL1       -0.2697
      9 N          12.8810   41.5738    8.5657 N.am    1  UNL1       -0.2803
     10 H          12.9586   41.3274    9.5157 H       1  UNL1        0.1552
     11 C          15.3830   41.3352    8.4909 C.ar    1  UNL1        0.1073
     12 C          16.5726   42.0317    8.3734 C.ar    1  UNL1        0.1591
     13 C          16.8117   43.2874    7.6085 C.3     1  UNL1        0.0755
     14 C          15.7224   40.2416    9.2856 C.ar    1  UNL1        0.1269
     15 O          17.5064   41.3922    9.0341 O.2     1  UNL1       -0.3576
     16 N          17.0345   40.3160    9.5924 N.ar    1  UNL1       -0.0772
     17 C          14.8451   39.1778    9.8149 C.ar    1  UNL1        0.0211
     18 C          14.3833   38.1722    8.9532 C.ar    1  UNL1        0.0016
     19 C          13.5879   37.1306    9.4405 C.ar    1  UNL1        0.0000
     20 C          13.2589   37.0792   10.7974 C.ar    1  UNL1        0.0000
     21 C          13.7290   38.0665   11.6670 C.ar    1  UNL1        0.0000
     22 C          14.5234   39.1078   11.1780 C.ar    1  UNL1        0.0016
     23 O           6.4323   43.0070    7.7939 O.2     1  UNL1       -0.1530
     24 O           7.3162   43.7098    5.6201 O.2     1  UNL1       -0.1530
     25 S           7.2951   42.5988    6.6318 S.O2    1  UNL1        0.0602
     26 N           6.6504   41.1812    5.8705 N.3     1  UNL1       -0.1793
     27 H           5.6780   41.3423    5.6082 H       1  UNL1        0.1488
     28 C           6.7288   40.0801    6.8178 C.3     1  UNL1        0.0940
     29 C           7.3047   38.8483    6.1399 C.3     1  UNL1        0.0509
     30 C           8.6720   39.1443    5.5434 C.3     1  UNL1        0.1438
     31 C           9.9984   38.8837    3.7996 C.3     1  UNL1        0.1741
     32 O           8.6537   38.9335    4.1641 O.3     1  UNL1       -0.3511
@<TRIPOS>BOND
     1    11     7    1
     2    12    15   ar
     3    13    12    1
     4    14    17    1
     5    14    11   ar
     6    18    19   ar
     7    20    21   ar
     8    22    17   ar
     9     7     9   am
    10     2     3   ar
    11     4     5   ar
    12     6     1   ar
    13    28    26    1
    14    28    29    1
    15    29    30    1
    16    30    32    1
    17    31    32    1
    18    15    16   ar
    19     9     1    1
    20    25     4    1
    21    25    26    1
    22    11    12   ar
    23    14    16   ar
    24    17    18   ar
    25    19    20   ar
    26    21    22   ar
    27     7     8    2
    28     1     2   ar
    29     3     4   ar
    30     5     6   ar
    31    25    23    2
    32    25    24    2
    33     9    10    1
    34    26    27    1
@<TRIPOS>MOLECULE
MolPort-002-019-554 13494384 CSSS00132527814 ChemDiv-Y031-1521 LN00990541 MCULE-9513418977 PubChem-3160787 ZINC000013494384
 32 34 0 0 0
SMALL
GASTEIGER

@<TRIPOS>ATOM
      1 C          11.3192   41.8450    7.6594 C.ar    1  UNL1        0.0506
      2 C          10.4029   42.1178    8.6864 C.ar    1  UNL1        0.0160
      3 C           9.0545   42.3363    8.3902 C.ar    1  UNL1        0.0212
      4 C           8.6096   42.2862    7.0651 C.ar    1  UNL1        0.1220
      5 C           9.5202   42.0115    6.0395 C.ar    1  UNL1        0.0212
      6 C          10.8684   41.7940    6.3361 C.ar    1  UNL1        0.0160
      7 C          13.7877   42.5461    7.7015 C.2     1  UNL1        0.2538
      8 O          13.5555   43.7132    7.2885 O.2     1  UNL1       -0.2697
      9 N          12.7115   41.6236    7.9215 N.am    1  UNL1       -0.2803
     10 H          12.9547   40.7445    8.2921 H       1  UNL1        0.1552
     11 C          15.1723   42.1331    8.0059 C.ar    1  UNL1        0.1073
     12 C          16.3331   42.6956    7.5055 C.ar    1  UNL1        0.1591
     13 C          16.4489   43.8811    6.6110 C.3     1  UNL1        0.0755
     14 C          15.6307   41.0499    8.7537 C.ar    1  UNL1        0.1269
     15 O          17.3590   41.9951    7.9233 O.2     1  UNL1       -0.3576
     16 N          16.9770   41.0022    8.6721 N.ar    1  UNL1       -0.0772
     17 C          14.8549   40.1100    9.5879 C.ar    1  UNL1        0.0211
     18 C          15.3544   38.8203    9.8207 C.ar    1  UNL1        0.0016
     19 C          14.6594   37.9281   10.6429 C.ar    1  UNL1        0.0000
     20 C          13.4648   38.3237   11.2500 C.ar    1  UNL1        0.0000
     21 C          12.9682   39.6124   11.0384 C.ar    1  UNL1        0.0000
     22 C          13.6639   40.5029   10.2154 C.ar    1  UNL1        0.0016
     23 O           6.5312   43.9621    7.0878 O.2     1  UNL1       -0.1530
     24 O           6.6983   42.3871    5.2191 O.2     1  UNL1       -0.1530
     25 S           6.9139   42.5616    6.6961 S.O2    1  UNL1        0.0602
     26 N           5.9233   41.4097    7.5308 N.3     1  UNL1       -0.1793
     27 H           5.6535   41.7821    8.4412 H       1  UNL1        0.1488
     28 C           6.6946   40.1890    7.7071 C.3     1  UNL1        0.0940
     29 C           6.8312   39.4616    6.3803 C.3     1  UNL1        0.0509
     30 C           8.1656   38.7374    6.2914 C.3     1  UNL1        0.1438
     31 C          10.0659   38.4989    7.3869 C.3     1  UNL1        0.1741
     32 O           8.6839   38.5202    7.5687 O.3     1  UNL1       -0.3511
@<TRIPOS>BOND
     1    11     7    1
     2    12    15   ar
     3    13    12    1
     4    14    17    1
     5    14    11   ar
     6    18    19   ar
     7    20    21   ar
     8    22    17   ar
     9     7     9   am
    10     2     3   ar
    11     4     5   ar
    12     6     1   ar
    13    28    26    1
    14    28    29    1
    15    29    30    1
    16    30    32    1
    17    31    32    1
    18    15    16   ar
    19     9     1    1
    20    25     4    1
    21    25    26    1
    22    11    12   ar
    23    14    16   ar
    24    17    18   ar
    25    19    20   ar
    26    21    22   ar
    27     7     8    2
    28     1     2   ar
    29     3     4   ar
    30     5     6   ar
    31    25    23    2
    32    25    24    2
    33     9    10    1
    34    26    27    1
@<TRIPOS>MOLECULE
MolPort-002-019-554 13494384 CSSS00132527814 ChemDiv-Y031-1521 LN00990541 MCULE-9513418977 PubChem-3160787 ZINC000013494384
 32 34 0 0 0
SMALL
GASTEIGER

@<TRIPOS>ATOM
      1 C          12.8223   39.3968    8.1178 C.ar    1  UNL1        0.0506
      2 C          13.4033   40.6256    8.4663 C.ar    1  UNL1        0.0160
      3 C          14.6438   40.6633    9.1092 C.ar    1  UNL1        0.0212
      4 C          15.3145   39.4736    9.4113 C.ar    1  UNL1        0.1220
      5 C          14.7393   38.2474    9.0624 C.ar    1  UNL1        0.0212
      6 C          13.4985   38.2102    8.4205 C.ar    1  UNL1        0.0160
      7 C          11.1054   40.0867    6.3393 C.2     1  UNL1        0.2538
      8 O          11.8838   40.9011    5.7758 O.2     1  UNL1       -0.2697
      9 N          11.5481   39.3160    7.4653 N.am    1  UNL1       -0.2803
     10 H          10.9087   38.6617    7.8289 H       1  UNL1        0.1552
     11 C           9.7401   39.8870    5.8138 C.ar    1  UNL1        0.1073
     12 C           9.3859   39.1899    4.6723 C.ar    1  UNL1        0.1591
     13 C          10.2878   38.4289    3.7632 C.3     1  UNL1        0.0755
     14 C           8.5318   40.4218    6.2574 C.ar    1  UNL1        0.1269
     15 O           8.0964   39.3197    4.4782 O.2     1  UNL1       -0.3576
     16 N           7.5522   40.0508    5.4066 N.ar    1  UNL1       -0.0772
     17 C           8.2631   41.2054    7.4801 C.ar    1  UNL1        0.0211
     18 C           7.1679   40.8682    8.2888 C.ar    1  UNL1        0.0016
     19 C           6.9193   41.5674    9.4739 C.ar    1  UNL1        0.0000
     20 C           7.7725   42.6017    9.8666 C.ar    1  UNL1        0.0000
     21 C           8.8762   42.9333    9.0768 C.ar    1  UNL1        0.0000
     22 C           9.1229   42.2339    7.8917 C.ar    1  UNL1        0.0016
     23 O          16.6878   39.2940   11.6941 O.2     1  UNL1       -0.1530
     24 O          17.7528   38.4422    9.6592 O.2     1  UNL1       -0.1530
     25 S          16.8738   39.5245   10.2198 S.O2    1  UNL1        0.0602
     26 N          17.6450   41.0515    9.9405 N.3     1  UNL1       -0.1793
     27 H          17.3968   41.7046   10.6837 H       1  UNL1        0.1488
     28 C          17.1860   41.5660    8.6597 C.3     1  UNL1        0.0940
     29 C          17.8540   42.8978    8.3624 C.3     1  UNL1        0.0509
     30 C          16.8517   43.8976    7.8066 C.3     1  UNL1        0.1438
     31 C          15.3118   44.3325    6.2874 C.3     1  UNL1        0.1741
     32 O          16.0323   43.2843    6.8580 O.3     1  UNL1       -0.3511
@<TRIPOS>BOND
     1    11     7    1
     2    12    15   ar
     3    13    12    1
     4    14    17    1
     5    14    11   ar
     6    18    19   ar
     7    20    21   ar
     8    22    17   ar
     9     7     9   am
    10     2     3   ar
    11     4     5   ar
    12     6     1   ar
    13    28    26    1
    14    28    29    1
    15    29    30    1
    16    30    32    1
    17    31    32    1
    18    15    16   ar
    19     9     1    1
    20    25     4    1
    21    25    26    1
    22    11    12   ar
    23    14    16   ar
    24    17    18   ar
    25    19    20   ar
    26    21    22   ar
    27     7     8    2
    28     1     2   ar
    29     3     4   ar
    30     5     6   ar
    31    25    23    2
    32    25    24    2
    33     9    10    1
    34    26    27    1
