@<TRIPOS>MOLECULE
MolPort-047-072-557 PubChem-132766378
 32 35 0 0 0
SMALL
GASTEIGER

@<TRIPOS>ATOM
      1 C          13.6472   37.7012    6.3426 C.3     1  UNL1        0.0521
      2 C          13.2590   38.4655    7.5562 C.ar    1  UNL1        0.0602
      3 C          14.1788   38.6451    8.5908 C.ar    1  UNL1        0.0294
      4 C          13.8056   39.3671    9.7317 C.ar    1  UNL1        0.0517
      5 C          12.5145   39.8944    9.8105 C.ar    1  UNL1        0.0294
      6 C          11.6187   39.6954    8.7565 C.ar    1  UNL1        0.0611
      7 N          12.0088   38.9894    7.6585 N.ar    1  UNL1       -0.2538
      8 C          10.2411   40.2628    8.8466 C.3     1  UNL1        0.0602
      9 C           9.2410   39.3758    8.1020 C.3     1  UNL1        0.0094
     10 C           7.8340   39.9615    8.2009 C.3     1  UNL1        0.0220
     11 C           7.8174   41.3758    7.6294 C.3     1  UNL1        0.0937
     12 C          10.2101   41.6885    8.2953 C.3     1  UNL1        0.0996
     13 C           8.5015   43.4096    8.9631 C.2     1  UNL1        0.2492
     14 N           8.8360   42.1823    8.2980 N.am    1  UNL1       -0.2757
     15 O           9.4041   44.0780    9.5387 O.2     1  UNL1       -0.2699
     16 C           7.1115   43.8929    8.9789 C.2     1  UNL1        0.0580
     17 C           6.3685   43.9420    7.8757 C.2     1  UNL1        0.0062
     18 C           4.9803   44.4222    7.8764 C.ar    1  UNL1        0.0193
     19 C           4.6483   45.5443    7.1139 C.ar    1  UNL1        0.0031
     20 C           3.3351   46.0178    7.1002 C.ar    1  UNL1        0.0207
     21 C           2.3641   45.3568    7.8555 C.ar    1  UNL1        0.0989
     22 C           3.9740   43.7887    8.6203 C.ar    1  UNL1        0.0988
     23 N           2.7003   44.2653    8.5938 N.ar    1  UNL1       -0.2423
     24 N          14.7064   39.5849   10.8267 N.pl3   1  UNL1       -0.2981
     25 H          14.3570   40.1150   11.5791 H       1  UNL1        0.1536
     26 C          16.0598   39.1190   10.9523 C.ar    1  UNL1        0.1281
     27 C          18.3904   39.4332   10.5732 C.ar    1  UNL1        0.1003
     28 C          18.6819   38.2187   11.1945 C.ar    1  UNL1        0.0204
     29 C          17.6368   37.4466   11.7012 C.ar    1  UNL1        0.0001
     30 C          16.3185   37.8909   11.5839 C.ar    1  UNL1        0.0099
     31 C          15.2161   37.0510   12.1320 C.3     1  UNL1        0.0340
     32 N          17.1013   39.8522   10.4667 N.ar    1  UNL1       -0.2294
@<TRIPOS>BOND
     1     1     2    1
     2     2     7   ar
     3     3     4   ar
     4     4    24    1
     5    27    32   ar
     6    28    29   ar
     7    30    26   ar
     8    31    30    1
     9     5     6   ar
    10     8     6    1
    11     8     9    1
    12     9    10    1
    13    10    11    1
    14    11    14    1
    15    12    14    1
    16    12     8    1
    17    13    16    1
    18    17    18    1
    19    19    20   ar
    20    21    23   ar
    21    22    18   ar
    22    24    26    1
    23    14    13   am
    24     2     3   ar
    25     4     5   ar
    26    26    32   ar
    27    27    28   ar
    28    29    30   ar
    29     6     7   ar
    30    13    15    2
    31    16    17    2
    32    18    19   ar
    33    20    21   ar
    34    22    23   ar
    35    24    25    1
@<TRIPOS>MOLECULE
MolPort-047-072-557 PubChem-132766378
 32 35 0 0 0
SMALL
GASTEIGER

@<TRIPOS>ATOM
      1 C          15.8116   37.8801   11.7532 C.3     1  UNL1        0.0521
      2 C          15.1925   38.8750   10.8397 C.ar    1  UNL1        0.0602
      3 C          16.0014   39.7096   10.0665 C.ar    1  UNL1        0.0294
      4 C          15.4103   40.6449    9.2074 C.ar    1  UNL1        0.0517
      5 C          14.0171   40.7231    9.1424 C.ar    1  UNL1        0.0294
      6 C          13.2373   39.8726    9.9308 C.ar    1  UNL1        0.0611
      7 N          13.8391   38.9720   10.7573 N.ar    1  UNL1       -0.2538
      8 C          11.7493   39.9606    9.8553 C.3     1  UNL1        0.0602
      9 C          11.2840   40.0174    8.3987 C.3     1  UNL1        0.0094
     10 C           9.7609   40.1048    8.3297 C.3     1  UNL1        0.0220
     11 C           9.2749   41.3345    9.0906 C.3     1  UNL1        0.0937
     12 C          11.2430   41.1779   10.6296 C.3     1  UNL1        0.0996
     13 C           8.9263   41.3586   11.5928 C.2     1  UNL1        0.2492
     14 N           9.7987   41.3008   10.4542 N.am    1  UNL1       -0.2757
     15 O           9.4108   41.3184   12.7575 O.2     1  UNL1       -0.2699
     16 C           7.4698   41.4634   11.4102 C.2     1  UNL1        0.0580
     17 C           6.9220   41.6864   10.2179 C.2     1  UNL1        0.0062
     18 C           5.4703   41.7936   10.0207 C.ar    1  UNL1        0.0193
     19 C           4.6546   40.7156   10.3717 C.ar    1  UNL1        0.0031
     20 C           3.2725   40.7962   10.1925 C.ar    1  UNL1        0.0207
     21 C           2.7208   41.9635    9.6606 C.ar    1  UNL1        0.0989
     22 C           4.8747   42.9471    9.4897 C.ar    1  UNL1        0.0988
     23 N           3.5260   43.0062    9.3228 N.ar    1  UNL1       -0.2423
     24 N          16.1887   41.5289    8.3884 N.pl3   1  UNL1       -0.2981
     25 H          17.1666   41.4414    8.4610 H       1  UNL1        0.1536
     26 C          15.7062   42.5272    7.4746 C.ar    1  UNL1        0.1281
     27 C          14.0634   43.2759    5.9208 C.ar    1  UNL1        0.1003
     28 C          14.7696   44.4593    5.7042 C.ar    1  UNL1        0.0204
     29 C          15.9653   44.6721    6.3898 C.ar    1  UNL1        0.0001
     30 C          16.4423   43.7080    7.2799 C.ar    1  UNL1        0.0099
     31 C          17.7221   43.9547    8.0026 C.3     1  UNL1        0.0340
     32 N          14.5410   42.3466    6.7907 N.ar    1  UNL1       -0.2294
@<TRIPOS>BOND
     1     1     2    1
     2     2     7   ar
     3     3     4   ar
     4     4    24    1
     5    27    32   ar
     6    28    29   ar
     7    30    26   ar
     8    31    30    1
     9     5     6   ar
    10     8     6    1
    11     8     9    1
    12     9    10    1
    13    10    11    1
    14    11    14    1
    15    12    14    1
    16    12     8    1
    17    13    16    1
    18    17    18    1
    19    19    20   ar
    20    21    23   ar
    21    22    18   ar
    22    24    26    1
    23    14    13   am
    24     2     3   ar
    25     4     5   ar
    26    26    32   ar
    27    27    28   ar
    28    29    30   ar
    29     6     7   ar
    30    13    15    2
    31    16    17    2
    32    18    19   ar
    33    20    21   ar
    34    22    23   ar
    35    24    25    1
@<TRIPOS>MOLECULE
MolPort-047-072-557 PubChem-132766378
 32 35 0 0 0
SMALL
GASTEIGER

@<TRIPOS>ATOM
      1 C           1.9480   40.4779    8.5662 C.3     1  UNL1        0.0521
      2 C           2.7194   41.2376    9.5837 C.ar    1  UNL1        0.0602
      3 C           2.1218   41.5828   10.7971 C.ar    1  UNL1        0.0294
      4 C           2.8556   42.2990   11.7516 C.ar    1  UNL1        0.0517
      5 C           4.1763   42.6544   11.4674 C.ar    1  UNL1        0.0294
      6 C           4.7434   42.2929   10.2424 C.ar    1  UNL1        0.0611
      7 N           4.0065   41.5960    9.3327 N.ar    1  UNL1       -0.2538
      8 C           6.1556   42.6746    9.9460 C.3     1  UNL1        0.0602
      9 C           6.2200   43.6143    8.7401 C.3     1  UNL1        0.0094
     10 C           7.6673   44.0023    8.4447 C.3     1  UNL1        0.0220
     11 C           8.4999   42.7502    8.1872 C.3     1  UNL1        0.0937
     12 C           7.0093   41.4296    9.7040 C.3     1  UNL1        0.0996
     13 C           9.5011   41.3552   10.0404 C.2     1  UNL1        0.2492
     14 N           8.3579   41.8316    9.3146 N.am    1  UNL1       -0.2757
     15 O           9.3429   40.5692   11.0151 O.2     1  UNL1       -0.2699
     16 C          10.8569   41.7787    9.6554 C.2     1  UNL1        0.0580
     17 C          11.5712   41.1189    8.7466 C.2     1  UNL1        0.0062
     18 C          12.9255   41.5297    8.3529 C.ar    1  UNL1        0.0193
     19 C          14.0251   40.9001    8.9402 C.ar    1  UNL1        0.0031
     20 C          15.3209   41.2751    8.5807 C.ar    1  UNL1        0.0207
     21 C          15.5003   42.2827    7.6307 C.ar    1  UNL1        0.0989
     22 C          13.1510   42.5369    7.4031 C.ar    1  UNL1        0.0988
     23 N          14.4212   42.8879    7.0661 N.ar    1  UNL1       -0.2423
     24 N           2.2961   42.6817   13.0158 N.pl3   1  UNL1       -0.2981
     25 H           2.9393   42.8799   13.7344 H       1  UNL1        0.1536
     26 C           0.9057   42.8094   13.3547 C.ar    1  UNL1        0.1281
     27 C          -1.3235   41.9755   13.2576 C.ar    1  UNL1        0.1003
     28 C          -1.7879   43.0545   14.0100 C.ar    1  UNL1        0.0204
     29 C          -0.8817   44.0242   14.4385 C.ar    1  UNL1        0.0001
     30 C           0.4714   43.9088   14.1142 C.ar    1  UNL1        0.0099
     31 C           1.4234   44.9557   14.5818 C.3     1  UNL1        0.0340
     32 N          -0.0028   41.8773   12.9498 N.ar    1  UNL1       -0.2294
@<TRIPOS>BOND
     1     1     2    1
     2     2     7   ar
     3     3     4   ar
     4     4    24    1
     5    27    32   ar
     6    28    29   ar
     7    30    26   ar
     8    31    30    1
     9     5     6   ar
    10     8     6    1
    11     8     9    1
    12     9    10    1
    13    10    11    1
    14    11    14    1
    15    12    14    1
    16    12     8    1
    17    13    16    1
    18    17    18    1
    19    19    20   ar
    20    21    23   ar
    21    22    18   ar
    22    24    26    1
    23    14    13   am
    24     2     3   ar
    25     4     5   ar
    26    26    32   ar
    27    27    28   ar
    28    29    30   ar
    29     6     7   ar
    30    13    15    2
    31    16    17    2
    32    18    19   ar
    33    20    21   ar
    34    22    23   ar
    35    24    25    1
@<TRIPOS>MOLECULE
MolPort-047-072-557 PubChem-132766378
 32 35 0 0 0
SMALL
GASTEIGER

@<TRIPOS>ATOM
      1 C          10.0395   40.2079   12.4440 C.3     1  UNL1        0.0521
      2 C          10.4193   39.7791   11.0730 C.ar    1  UNL1        0.0602
      3 C          10.0607   40.5609    9.9736 C.ar    1  UNL1        0.0294
      4 C          10.4226   40.1502    8.6841 C.ar    1  UNL1        0.0517
      5 C          11.1380   38.9610    8.5251 C.ar    1  UNL1        0.0294
      6 C          11.4804   38.2023    9.6476 C.ar    1  UNL1        0.0611
      7 N          11.1157   38.6260   10.8901 N.ar    1  UNL1       -0.2538
      8 C          12.2462   36.9335    9.4705 C.3     1  UNL1        0.0602
      9 C          12.6373   36.3439   10.8272 C.3     1  UNL1        0.0094
     10 C          13.4180   35.0451   10.6378 C.3     1  UNL1        0.0220
     11 C          14.6617   35.3035    9.7929 C.3     1  UNL1        0.0937
     12 C          13.4869   37.1704    8.6091 C.3     1  UNL1        0.0996
     13 C          14.6229   35.3711    7.2676 C.2     1  UNL1        0.2492
     14 N          14.2723   35.9416    8.5374 N.am    1  UNL1       -0.2757
     15 O          14.2633   35.9431    6.2016 O.2     1  UNL1       -0.2699
     16 C          15.3984   34.1221    7.2013 C.2     1  UNL1        0.0580
     17 C          16.4859   33.9260    7.9431 C.2     1  UNL1        0.0062
     18 C          17.2698   32.6851    7.8871 C.ar    1  UNL1        0.0193
     19 C          17.9911   32.3877    6.7286 C.ar    1  UNL1        0.0031
     20 C          18.7426   31.2136    6.6538 C.ar    1  UNL1        0.0207
     21 C          18.7628   30.3462    7.7480 C.ar    1  UNL1        0.0989
     22 C          17.3179   31.7860    8.9626 C.ar    1  UNL1        0.0988
     23 N          18.0562   30.6472    8.8703 N.ar    1  UNL1       -0.2423
     24 N          10.0829   40.9110    7.5164 N.pl3   1  UNL1       -0.2981
     25 H           9.8556   41.8574    7.6644 H       1  UNL1        0.1536
     26 C          10.0361   40.4517    6.1558 C.ar    1  UNL1        0.1281
     27 C          10.6541   38.8578    4.4971 C.ar    1  UNL1        0.1003
     28 C           9.9467   39.5600    3.5211 C.ar    1  UNL1        0.0204
     29 C           9.2745   40.7287    3.8781 C.ar    1  UNL1        0.0001
     30 C           9.3141   41.1830    5.1976 C.ar    1  UNL1        0.0099
     31 C           8.5891   42.4341    5.5585 C.3     1  UNL1        0.0340
     32 N          10.6833   39.3131    5.7778 N.ar    1  UNL1       -0.2294
@<TRIPOS>BOND
     1     1     2    1
     2     2     7   ar
     3     3     4   ar
     4     4    24    1
     5    27    32   ar
     6    28    29   ar
     7    30    26   ar
     8    31    30    1
     9     5     6   ar
    10     8     6    1
    11     8     9    1
    12     9    10    1
    13    10    11    1
    14    11    14    1
    15    12    14    1
    16    12     8    1
    17    13    16    1
    18    17    18    1
    19    19    20   ar
    20    21    23   ar
    21    22    18   ar
    22    24    26    1
    23    14    13   am
    24     2     3   ar
    25     4     5   ar
    26    26    32   ar
    27    27    28   ar
    28    29    30   ar
    29     6     7   ar
    30    13    15    2
    31    16    17    2
    32    18    19   ar
    33    20    21   ar
    34    22    23   ar
    35    24    25    1
@<TRIPOS>MOLECULE
MolPort-047-072-557 PubChem-132766378
 32 35 0 0 0
SMALL
GASTEIGER

@<TRIPOS>ATOM
      1 C          14.3920   37.2101   11.9253 C.3     1  UNL1        0.0521
      2 C          14.2557   38.3774   11.0161 C.ar    1  UNL1        0.0602
      3 C          15.3926   38.9570   10.4505 C.ar    1  UNL1        0.0294
      4 C          15.2560   40.0571    9.5940 C.ar    1  UNL1        0.0517
      5 C          13.9786   40.5532    9.3230 C.ar    1  UNL1        0.0294
      6 C          12.8618   39.9491    9.9067 C.ar    1  UNL1        0.0611
      7 N          13.0241   38.8800   10.7356 N.ar    1  UNL1       -0.2538
      8 C          11.4998   40.4835    9.6116 C.3     1  UNL1        0.0602
      9 C          10.8720   39.7415    8.4298 C.3     1  UNL1        0.0094
     10 C           9.4781   40.2921    8.1357 C.3     1  UNL1        0.0220
     11 C           9.5601   41.7867    7.8412 C.3     1  UNL1        0.0937
     12 C          11.5607   41.9855    9.3327 C.3     1  UNL1        0.0996
     13 C           9.6150   43.5476    9.6520 C.2     1  UNL1        0.2492
     14 N          10.2364   42.4634    8.9456 N.am    1  UNL1       -0.2757
     15 O          10.2232   44.1048   10.6073 O.2     1  UNL1       -0.2699
     16 C           8.2721   44.0127    9.2698 C.2     1  UNL1        0.0580
     17 C           7.2205   43.1971    9.2539 C.2     1  UNL1        0.0062
     18 C           5.8747   43.6472    8.8743 C.ar    1  UNL1        0.0193
     19 C           5.7402   44.6864    7.9509 C.ar    1  UNL1        0.0031
     20 C           4.4706   45.1299    7.5762 C.ar    1  UNL1        0.0207
     21 C           3.3439   44.5227    8.1347 C.ar    1  UNL1        0.0989
     22 C           4.7166   43.0655    9.4107 C.ar    1  UNL1        0.0988
     23 N           3.4884   43.5117    9.0328 N.ar    1  UNL1       -0.2423
     24 N          16.3864   40.6946    8.9829 N.pl3   1  UNL1       -0.2981
     25 H          17.2316   40.1899    8.9981 H       1  UNL1        0.1536
     26 C          16.4279   41.9845    8.3513 C.ar    1  UNL1        0.1281
     27 C          17.5326   44.0619    7.9798 C.ar    1  UNL1        0.1003
     28 C          16.5106   44.4832    7.1289 C.ar    1  UNL1        0.0204
     29 C          15.4312   43.6329    6.8905 C.ar    1  UNL1        0.0001
     30 C          15.3819   42.3776    7.4996 C.ar    1  UNL1        0.0099
     31 C          14.2197   41.4840    7.2317 C.3     1  UNL1        0.0340
     32 N          17.4701   42.8366    8.5656 N.ar    1  UNL1       -0.2294
@<TRIPOS>BOND
     1     1     2    1
     2     2     7   ar
     3     3     4   ar
     4     4    24    1
     5    27    32   ar
     6    28    29   ar
     7    30    26   ar
     8    31    30    1
     9     5     6   ar
    10     8     6    1
    11     8     9    1
    12     9    10    1
    13    10    11    1
    14    11    14    1
    15    12    14    1
    16    12     8    1
    17    13    16    1
    18    17    18    1
    19    19    20   ar
    20    21    23   ar
    21    22    18   ar
    22    24    26    1
    23    14    13   am
    24     2     3   ar
    25     4     5   ar
    26    26    32   ar
    27    27    28   ar
    28    29    30   ar
    29     6     7   ar
    30    13    15    2
    31    16    17    2
    32    18    19   ar
    33    20    21   ar
    34    22    23   ar
    35    24    25    1
@<TRIPOS>MOLECULE
MolPort-047-072-557 PubChem-132766378
 32 35 0 0 0
SMALL
GASTEIGER

@<TRIPOS>ATOM
      1 C           2.0267   40.6659    8.4811 C.3     1  UNL1        0.0521
      2 C           2.8166   41.1951    9.6229 C.ar    1  UNL1        0.0602
      3 C           2.1660   41.7980   10.7008 C.ar    1  UNL1        0.0294
      4 C           2.9176   42.2942   11.7737 C.ar    1  UNL1        0.0517
      5 C           4.3090   42.1748   11.7420 C.ar    1  UNL1        0.0294
      6 C           4.9279   41.5658   10.6470 C.ar    1  UNL1        0.0611
      7 N           4.1721   41.0917    9.6173 N.ar    1  UNL1       -0.2538
      8 C           6.4150   41.4403   10.6203 C.3     1  UNL1        0.0602
      9 C           6.9956   41.5892   12.0281 C.3     1  UNL1        0.0094
     10 C           8.5167   41.4571   11.9930 C.3     1  UNL1        0.0220
     11 C           9.1093   42.5089   11.0603 C.3     1  UNL1        0.0937
     12 C           7.0248   42.4754    9.6747 C.3     1  UNL1        0.0996
     13 C           9.2618   42.2027    8.5571 C.2     1  UNL1        0.2492
     14 N           8.4813   42.4018    9.7454 N.am    1  UNL1       -0.2757
     15 O           8.6872   42.1055    7.4376 O.2     1  UNL1       -0.2699
     16 C          10.7284   42.1102    8.6366 C.2     1  UNL1        0.0580
     17 C          11.3507   40.9609    8.8879 C.2     1  UNL1        0.0062
     18 C          12.8134   40.8536    8.9705 C.ar    1  UNL1        0.0193
     19 C          13.3823   40.0684    9.9757 C.ar    1  UNL1        0.0031
     20 C          14.7702   39.9528   10.0725 C.ar    1  UNL1        0.0207
     21 C          15.5764   40.6294    9.1549 C.ar    1  UNL1        0.0989
     22 C          13.6602   41.5163    8.0698 C.ar    1  UNL1        0.0988
     23 N          15.0101   41.3909    8.1807 N.ar    1  UNL1       -0.2423
     24 N           2.3061   42.9233   12.9087 N.pl3   1  UNL1       -0.2981
     25 H           2.9020   43.4526   13.4866 H       1  UNL1        0.1536
     26 C           0.9245   42.8703   13.2996 C.ar    1  UNL1        0.1281
     27 C          -1.2039   41.8049   13.2050 C.ar    1  UNL1        0.1003
     28 C          -1.7518   42.7655   14.0554 C.ar    1  UNL1        0.0204
     29 C          -0.9391   43.7939   14.5319 C.ar    1  UNL1        0.0001
     30 C           0.4046   43.8538   14.1577 C.ar    1  UNL1        0.0099
     31 C           1.2560   44.9609   14.6779 C.3     1  UNL1        0.0340
     32 N           0.1065   41.8771   12.8497 N.ar    1  UNL1       -0.2294
@<TRIPOS>BOND
     1     1     2    1
     2     2     7   ar
     3     3     4   ar
     4     4    24    1
     5    27    32   ar
     6    28    29   ar
     7    30    26   ar
     8    31    30    1
     9     5     6   ar
    10     8     6    1
    11     8     9    1
    12     9    10    1
    13    10    11    1
    14    11    14    1
    15    12    14    1
    16    12     8    1
    17    13    16    1
    18    17    18    1
    19    19    20   ar
    20    21    23   ar
    21    22    18   ar
    22    24    26    1
    23    14    13   am
    24     2     3   ar
    25     4     5   ar
    26    26    32   ar
    27    27    28   ar
    28    29    30   ar
    29     6     7   ar
    30    13    15    2
    31    16    17    2
    32    18    19   ar
    33    20    21   ar
    34    22    23   ar
    35    24    25    1
@<TRIPOS>MOLECULE
MolPort-047-072-557 PubChem-132766378
 32 35 0 0 0
SMALL
GASTEIGER

@<TRIPOS>ATOM
      1 C           1.5528   41.1667    8.5220 C.3     1  UNL1        0.0521
      2 C           2.2546   41.3502    9.8187 C.ar    1  UNL1        0.0602
      3 C           1.5238   41.6413   10.9719 C.ar    1  UNL1        0.0294
      4 C           2.1926   41.8126   12.1908 C.ar    1  UNL1        0.0517
      5 C           3.5834   41.6880   12.2266 C.ar    1  UNL1        0.0294
      6 C           4.2840   41.3961   11.0531 C.ar    1  UNL1        0.0611
      7 N           3.6077   41.2343    9.8815 N.ar    1  UNL1       -0.2538
      8 C           5.7699   41.2630   11.0989 C.3     1  UNL1        0.0602
      9 C           6.3481   42.0564   12.2726 C.3     1  UNL1        0.0094
     10 C           7.8680   41.9133   12.3142 C.3     1  UNL1        0.0220
     11 C           8.4726   42.3945   10.9988 C.3     1  UNL1        0.0937
     12 C           6.3916   41.7232    9.7801 C.3     1  UNL1        0.0996
     13 C           8.6290   40.9392    8.9396 C.2     1  UNL1        0.2492
     14 N           7.8471   41.6821    9.8870 N.am    1  UNL1       -0.2757
     15 O           8.0566   40.3276    7.9956 O.2     1  UNL1       -0.2699
     16 C          10.0945   40.8854    9.0631 C.2     1  UNL1        0.0580
     17 C          10.8052   39.8611    8.5972 C.2     1  UNL1        0.0062
     18 C          12.2679   39.7937    8.7137 C.ar    1  UNL1        0.0193
     19 C          12.9220   38.6030    8.3899 C.ar    1  UNL1        0.0031
     20 C          14.3116   38.5170    8.4937 C.ar    1  UNL1        0.0207
     21 C          15.0335   39.6325    8.9231 C.ar    1  UNL1        0.0989
     22 C          13.0317   40.8899    9.1409 C.ar    1  UNL1        0.0988
     23 N          14.3847   40.7862    9.2354 N.ar    1  UNL1       -0.2423
     24 N           1.4964   42.1126   13.4087 N.pl3   1  UNL1       -0.2981
     25 H           1.2002   41.3402   13.9424 H       1  UNL1        0.1536
     26 C           1.1815   43.4101   13.9396 C.ar    1  UNL1        0.1281
     27 C           0.8397   45.7441   13.6086 C.ar    1  UNL1        0.1003
     28 C           0.5716   45.9240   14.9657 C.ar    1  UNL1        0.0204
     29 C           0.6114   44.8210   15.8182 C.ar    1  UNL1        0.0001
     30 C           0.9165   43.5562   15.3116 C.ar    1  UNL1        0.0099
     31 C           0.9539   42.3905   16.2394 C.3     1  UNL1        0.0340
     32 N           1.1353   44.5061   13.1305 N.ar    1  UNL1       -0.2294
@<TRIPOS>BOND
     1     1     2    1
     2     2     7   ar
     3     3     4   ar
     4     4    24    1
     5    27    32   ar
     6    28    29   ar
     7    30    26   ar
     8    31    30    1
     9     5     6   ar
    10     8     6    1
    11     8     9    1
    12     9    10    1
    13    10    11    1
    14    11    14    1
    15    12    14    1
    16    12     8    1
    17    13    16    1
    18    17    18    1
    19    19    20   ar
    20    21    23   ar
    21    22    18   ar
    22    24    26    1
    23    14    13   am
    24     2     3   ar
    25     4     5   ar
    26    26    32   ar
    27    27    28   ar
    28    29    30   ar
    29     6     7   ar
    30    13    15    2
    31    16    17    2
    32    18    19   ar
    33    20    21   ar
    34    22    23   ar
    35    24    25    1
@<TRIPOS>MOLECULE
MolPort-047-072-557 PubChem-132766378
 32 35 0 0 0
SMALL
GASTEIGER

@<TRIPOS>ATOM
      1 C          14.5237   37.9349   11.7465 C.3     1  UNL1        0.0521
      2 C          14.2379   39.0771   10.8402 C.ar    1  UNL1        0.0602
      3 C          15.2597   39.6201   10.0593 C.ar    1  UNL1        0.0294
      4 C          14.9824   40.6967    9.2070 C.ar    1  UNL1        0.0517
      5 C          13.6829   41.2067    9.1566 C.ar    1  UNL1        0.0294
      6 C          12.6839   40.6394    9.9522 C.ar    1  UNL1        0.0611
      7 N          12.9819   39.5926   10.7718 N.ar    1  UNL1       -0.2538
      8 C          11.2973   41.1884    9.8922 C.3     1  UNL1        0.0602
      9 C          10.6024   41.0518   11.2486 C.3     1  UNL1        0.0094
     10 C           9.1856   41.6178   11.1799 C.3     1  UNL1        0.0220
     11 C           8.3877   40.8945   10.0993 C.3     1  UNL1        0.0937
     12 C          10.4886   40.4875    8.8004 C.3     1  UNL1        0.0996
     13 C           8.5006   41.5168    7.6533 C.2     1  UNL1        0.2492
     14 N           9.1099   40.9672    8.8312 N.am    1  UNL1       -0.2757
     15 O           9.1553   41.5730    6.5758 O.2     1  UNL1       -0.2699
     16 C           7.1169   42.0164    7.6948 C.2     1  UNL1        0.0580
     17 C           6.8214   43.2424    8.1202 C.2     1  UNL1        0.0062
     18 C           5.4454   43.7543    8.1675 C.ar    1  UNL1        0.0193
     19 C           5.1186   44.8961    7.4326 C.ar    1  UNL1        0.0031
     20 C           3.8170   45.3997    7.4634 C.ar    1  UNL1        0.0207
     21 C           2.8521   44.7487    8.2350 C.ar    1  UNL1        0.0989
     22 C           4.4456   43.1317    8.9292 C.ar    1  UNL1        0.0988
     23 N           3.1831   43.6377    8.9461 N.ar    1  UNL1       -0.2423
     24 N          15.9902   41.2963    8.3808 N.pl3   1  UNL1       -0.2981
     25 H          16.8842   40.8856    8.4175 H       1  UNL1        0.1536
     26 C          15.8458   42.4269    7.5059 C.ar    1  UNL1        0.1281
     27 C          14.6674   43.5479    5.7657 C.ar    1  UNL1        0.1003
     28 C          15.5641   44.6156    5.8105 C.ar    1  UNL1        0.0204
     29 C          16.6182   44.5798    6.7229 C.ar    1  UNL1        0.0001
     30 C          16.7668   43.4855    7.5772 C.ar    1  UNL1        0.0099
     31 C          17.8999   43.4667    8.5450 C.3     1  UNL1        0.0340
     32 N          14.8256   42.4894    6.6042 N.ar    1  UNL1       -0.2294
@<TRIPOS>BOND
     1     1     2    1
     2     2     7   ar
     3     3     4   ar
     4     4    24    1
     5    27    32   ar
     6    28    29   ar
     7    30    26   ar
     8    31    30    1
     9     5     6   ar
    10     8     6    1
    11     8     9    1
    12     9    10    1
    13    10    11    1
    14    11    14    1
    15    12    14    1
    16    12     8    1
    17    13    16    1
    18    17    18    1
    19    19    20   ar
    20    21    23   ar
    21    22    18   ar
    22    24    26    1
    23    14    13   am
    24     2     3   ar
    25     4     5   ar
    26    26    32   ar
    27    27    28   ar
    28    29    30   ar
    29     6     7   ar
    30    13    15    2
    31    16    17    2
    32    18    19   ar
    33    20    21   ar
    34    22    23   ar
    35    24    25    1
@<TRIPOS>MOLECULE
MolPort-047-072-557 PubChem-132766378
 32 35 0 0 0
SMALL
GASTEIGER

@<TRIPOS>ATOM
      1 C           9.1276   39.8959    5.1143 C.3     1  UNL1        0.0521
      2 C           9.6403   40.4804    6.3804 C.ar    1  UNL1        0.0602
      3 C          11.0148   40.6301    6.5730 C.ar    1  UNL1        0.0294
      4 C          11.4905   41.1822    7.7693 C.ar    1  UNL1        0.0517
      5 C          10.5748   41.5732    8.7491 C.ar    1  UNL1        0.0294
      6 C           9.2055   41.4088    8.5236 C.ar    1  UNL1        0.0611
      7 N           8.7708   40.8692    7.3504 N.ar    1  UNL1       -0.2538
      8 C           8.2326   41.8300    9.5743 C.3     1  UNL1        0.0602
      9 C           8.7333   41.4341   10.9649 C.3     1  UNL1        0.0094
     10 C           7.7342   41.8705   12.0343 C.3     1  UNL1        0.0220
     11 C           6.3715   41.2411   11.7616 C.3     1  UNL1        0.0937
     12 C           6.8553   41.2232    9.3056 C.3     1  UNL1        0.0996
     13 C           4.7010   42.2198   10.1385 C.2     1  UNL1        0.2492
     14 N           5.9508   41.5637   10.4000 N.am    1  UNL1       -0.2757
     15 O           4.3715   42.4922    8.9510 O.2     1  UNL1       -0.2699
     16 C           3.8018   42.5778   11.2470 C.2     1  UNL1        0.0580
     17 C           2.5934   42.0358   11.3791 C.2     1  UNL1        0.0062
     18 C           1.6852   42.3838   12.4799 C.ar    1  UNL1        0.0193
     19 C           0.7068   41.4668   12.8705 C.ar    1  UNL1        0.0031
     20 C          -0.1669   41.7772   13.9141 C.ar    1  UNL1        0.0207
     21 C          -0.0487   43.0106   14.5582 C.ar    1  UNL1        0.0989
     22 C           1.7688   43.6111   13.1540 C.ar    1  UNL1        0.0988
     23 N           0.9083   43.8948   14.1685 N.ar    1  UNL1       -0.2423
     24 N          12.8907   41.3611    8.0246 N.pl3   1  UNL1       -0.2981
     25 H          13.2790   40.7999    8.7341 H       1  UNL1        0.1536
     26 C          13.7921   42.2646    7.3645 C.ar    1  UNL1        0.1281
     27 C          14.1703   44.0206    5.8001 C.ar    1  UNL1        0.1003
     28 C          15.5359   44.0157    6.0849 C.ar    1  UNL1        0.0204
     29 C          16.0300   43.1151    7.0283 C.ar    1  UNL1        0.0001
     30 C          15.1620   42.2333    7.6749 C.ar    1  UNL1        0.0099
     31 C          15.7100   41.2789    8.6798 C.3     1  UNL1        0.0340
     32 N          13.3378   43.1556    6.4382 N.ar    1  UNL1       -0.2294
@<TRIPOS>BOND
     1     1     2    1
     2     2     7   ar
     3     3     4   ar
     4     4    24    1
     5    27    32   ar
     6    28    29   ar
     7    30    26   ar
     8    31    30    1
     9     5     6   ar
    10     8     6    1
    11     8     9    1
    12     9    10    1
    13    10    11    1
    14    11    14    1
    15    12    14    1
    16    12     8    1
    17    13    16    1
    18    17    18    1
    19    19    20   ar
    20    21    23   ar
    21    22    18   ar
    22    24    26    1
    23    14    13   am
    24     2     3   ar
    25     4     5   ar
    26    26    32   ar
    27    27    28   ar
    28    29    30   ar
    29     6     7   ar
    30    13    15    2
    31    16    17    2
    32    18    19   ar
    33    20    21   ar
    34    22    23   ar
    35    24    25    1
@<TRIPOS>MOLECULE
MolPort-047-072-557 PubChem-132766378
 32 35 0 0 0
SMALL
GASTEIGER

@<TRIPOS>ATOM
      1 C           0.1988   40.9021    8.7902 C.3     1  UNL1        0.0521
      2 C           0.9881   41.3589    9.9633 C.ar    1  UNL1        0.0602
      3 C           0.3460   41.9772   11.0375 C.ar    1  UNL1        0.0294
      4 C           1.0968   42.4049   12.1401 C.ar    1  UNL1        0.0517
      5 C           2.4789   42.2026   12.1411 C.ar    1  UNL1        0.0294
      6 C           3.0896   41.5805   11.0489 C.ar    1  UNL1        0.0611
      7 N           2.3346   41.1743    9.9900 N.ar    1  UNL1       -0.2538
      8 C           4.5666   41.3663   11.0573 C.3     1  UNL1        0.0602
      9 C           5.1134   41.4243   12.4853 C.3     1  UNL1        0.0094
     10 C           6.6243   41.2018   12.4859 C.3     1  UNL1        0.0220
     11 C           7.3056   42.2517   11.6135 C.3     1  UNL1        0.0937
     12 C           5.2645   42.3989   10.1718 C.3     1  UNL1        0.0996
     13 C           7.5133   42.0354    9.1049 C.2     1  UNL1        0.2492
     14 N           6.7113   42.2345   10.2788 N.am    1  UNL1       -0.2757
     15 O           6.9672   42.0172    7.9672 O.2     1  UNL1       -0.2699
     16 C           8.9688   41.8512    9.2201 C.2     1  UNL1        0.0580
     17 C           9.7615   41.8060    8.1519 C.2     1  UNL1        0.0062
     18 C          11.2154   41.6223    8.2516 C.ar    1  UNL1        0.0193
     19 C          11.9900   41.6827    7.0909 C.ar    1  UNL1        0.0031
     20 C          13.3735   41.5107    7.1629 C.ar    1  UNL1        0.0207
     21 C          13.9681   41.2791    8.4050 C.ar    1  UNL1        0.0989
     22 C          11.8534   41.3875    9.4785 C.ar    1  UNL1        0.0988
     23 N          13.2028   41.2226    9.5278 N.ar    1  UNL1       -0.2423
     24 N           0.4936   43.0458   13.2729 N.pl3   1  UNL1       -0.2981
     25 H          -0.4768   43.2023   13.2189 H       1  UNL1        0.1536
     26 C           1.1420   43.4859   14.4773 C.ar    1  UNL1        0.1281
     27 C           2.6184   44.9864   15.5920 C.ar    1  UNL1        0.1003
     28 C           2.3989   44.3401   16.8086 C.ar    1  UNL1        0.0204
     29 C           1.5334   43.2473   16.8510 C.ar    1  UNL1        0.0001
     30 C           0.8987   42.8123   15.6860 C.ar    1  UNL1        0.0099
     31 C          -0.0226   41.6427   15.7527 C.3     1  UNL1        0.0340
     32 N           1.9929   44.5507   14.4662 N.ar    1  UNL1       -0.2294
@<TRIPOS>BOND
     1     1     2    1
     2     2     7   ar
     3     3     4   ar
     4     4    24    1
     5    27    32   ar
     6    28    29   ar
     7    30    26   ar
     8    31    30    1
     9     5     6   ar
    10     8     6    1
    11     8     9    1
    12     9    10    1
    13    10    11    1
    14    11    14    1
    15    12    14    1
    16    12     8    1
    17    13    16    1
    18    17    18    1
    19    19    20   ar
    20    21    23   ar
    21    22    18   ar
    22    24    26    1
    23    14    13   am
    24     2     3   ar
    25     4     5   ar
    26    26    32   ar
    27    27    28   ar
    28    29    30   ar
    29     6     7   ar
    30    13    15    2
    31    16    17    2
    32    18    19   ar
    33    20    21   ar
    34    22    23   ar
    35    24    25    1
