@<TRIPOS>MOLECULE
MolPort-007-686-750 ChemDiv-D039-3217 MCULE-4519348974 PubChem-23605095 ZINC000006804283 ZINC06804283
 31 33 0 0 0
SMALL
GASTEIGER

@<TRIPOS>ATOM
      1 C           2.6565   42.8728   11.7603 C.2     1  UNL1        0.3088
      2 C           3.9140   43.0895    9.5956 C.3     1  UNL1        0.1164
      3 C           5.4079   42.9456    9.3248 C.3     1  UNL1        0.1124
      4 C           5.4415   40.7832   10.5749 C.3     1  UNL1        0.1124
      5 C           3.9484   40.9162   10.8601 C.3     1  UNL1        0.1164
      6 O           2.2493   44.0604   11.6377 O.2     1  UNL1       -0.2522
      7 N           2.2328   42.0738   12.8728 N.am    1  UNL1       -0.2552
      8 N           3.5536   42.3221   10.7872 N.am    1  UNL1       -0.2604
      9 N           5.7742   41.5310    9.3635 N.pl3   1  UNL1       -0.3041
     10 H           2.5816   41.1549   12.9303 H       1  UNL1        0.1578
     11 C          -0.3521   42.5556   15.3246 C.ar    1  UNL1        0.0857
     12 C           0.4493   43.6833   15.4602 C.ar    1  UNL1        0.0408
     13 C           0.2345   44.8035   16.4188 C.3     1  UNL1        0.0500
     14 C           1.3420   42.5074   13.9070 C.ar    1  UNL1        0.1085
     15 C           0.2317   41.8043   14.3210 C.ar    1  UNL1        0.0153
     16 C          -0.2304   40.4945   13.7775 C.3     1  UNL1        0.0342
     17 N           1.4846   43.6574   14.5962 N.ar    1  UNL1       -0.3451
     18 H           2.1926   44.3334   14.4913 H       1  UNL1        0.1668
     19 C          -1.5729   42.2238   16.0873 C.2     1  UNL1        0.3421
     20 O          -2.4066   41.4011   15.6190 O.2     1  UNL1       -0.2449
     21 O          -1.8014   42.8223   17.3281 O.3     1  UNL1       -0.4454
     22 C          -2.4556   42.6532   19.6275 C.3     1  UNL1        0.0513
     23 C          -1.5165   42.1557   18.5489 C.3     1  UNL1        0.2089
     24 C           6.4132   40.8927    8.2424 C.ar    1  UNL1        0.0481
     25 C           7.8090   40.9359    8.0962 C.ar    1  UNL1        0.0176
     26 C           8.4301   40.3156    7.0088 C.ar    1  UNL1        0.0382
     27 C           7.6678   39.6421    6.0501 C.ar    1  UNL1        0.1388
     28 C           6.2721   39.5947    6.1898 C.ar    1  UNL1        0.0382
     29 C           5.6514   40.2150    7.2771 C.ar    1  UNL1        0.0176
     30 C           9.7345   38.9733    4.8671 C.3     1  UNL1        0.2525
     31 O           8.3187   39.0321    4.9744 O.3     1  UNL1       -0.4714
@<TRIPOS>BOND
     1    22    23    1
     2    23    21    1
     3    19    21    1
     4    19    11    1
     5    12    17   ar
     6    13    12    1
     7    14     7    1
     8     1     8   am
     9     2     8    1
    10     2     3    1
    11     3     9    1
    12     4     9    1
    13     4     5    1
    14     5     8    1
    15    25    26   ar
    16    27    31    1
    17    27    28   ar
    18    30    31    1
    19    29    24   ar
    20    15    11   ar
    21    16    15    1
    22    17    14   ar
    23     7     1   am
    24     9    24    1
    25    19    20    2
    26    11    12   ar
    27    14    15   ar
    28     1     6    2
    29    24    25   ar
    30    26    27   ar
    31    28    29   ar
    32    17    18    1
    33     7    10    1
@<TRIPOS>MOLECULE
MolPort-007-686-750 ChemDiv-D039-3217 MCULE-4519348974 PubChem-23605095 ZINC000006804283 ZINC06804283
 31 33 0 0 0
SMALL
GASTEIGER

@<TRIPOS>ATOM
      1 C           2.4492   41.9907   11.2661 C.2     1  UNL1        0.3088
      2 C           3.9968   41.4114    9.3732 C.3     1  UNL1        0.1164
      3 C           5.2283   42.1551    8.8669 C.3     1  UNL1        0.1124
      4 C           6.1128   42.3082   11.1980 C.3     1  UNL1        0.1124
      5 C           4.8832   41.5713   11.7210 C.3     1  UNL1        0.1164
      6 O           1.4829   42.0362   10.4565 O.2     1  UNL1       -0.2522
      7 N           2.2303   42.2050   12.6668 N.am    1  UNL1       -0.2552
      8 N           3.7735   41.7314   10.7826 N.am    1  UNL1       -0.2604
      9 N           6.3361   41.9501    9.7983 N.pl3   1  UNL1       -0.3041
     10 H           3.0153   42.1663   13.2597 H       1  UNL1        0.1578
     11 C          -0.6350   43.4536   14.4433 C.ar    1  UNL1        0.0857
     12 C          -1.0929   42.2794   13.8570 C.ar    1  UNL1        0.0408
     13 C          -2.4673   41.7163   13.9754 C.3     1  UNL1        0.0500
     14 C           0.9594   42.4710   13.2711 C.ar    1  UNL1        0.1085
     15 C           0.6887   43.5679   14.0598 C.ar    1  UNL1        0.0153
     16 C           1.6504   44.6505   14.4170 C.3     1  UNL1        0.0342
     17 N          -0.1222   41.6766   13.1406 N.ar    1  UNL1       -0.3451
     18 H          -0.1890   40.8366   12.6315 H       1  UNL1        0.1668
     19 C          -1.3961   44.3870   15.2988 C.2     1  UNL1        0.3421
     20 O          -2.0222   45.3517   14.7806 O.2     1  UNL1       -0.2449
     21 O          -1.4215   44.1983   16.6822 O.3     1  UNL1       -0.4454
     22 C           0.5480   43.7624   17.9764 C.3     1  UNL1        0.0513
     23 C          -0.6774   43.1678   17.3149 C.3     1  UNL1        0.2089
     24 C           7.5889   41.3925    9.3597 C.ar    1  UNL1        0.0481
     25 C           8.7435   41.5226   10.1480 C.ar    1  UNL1        0.0176
     26 C           9.9597   40.9806    9.7235 C.ar    1  UNL1        0.0382
     27 C          10.0426   40.2999    8.5056 C.ar    1  UNL1        0.1388
     28 C           8.8926   40.1659    7.7124 C.ar    1  UNL1        0.0382
     29 C           7.6768   40.7079    8.1371 C.ar    1  UNL1        0.0176
     30 C          12.1473   40.4437    7.2142 C.3     1  UNL1        0.2525
     31 O          11.2733   39.7695    8.1091 O.3     1  UNL1       -0.4714
@<TRIPOS>BOND
     1    22    23    1
     2    23    21    1
     3    19    21    1
     4    19    11    1
     5    12    17   ar
     6    13    12    1
     7    14     7    1
     8     1     8   am
     9     2     8    1
    10     2     3    1
    11     3     9    1
    12     4     9    1
    13     4     5    1
    14     5     8    1
    15    25    26   ar
    16    27    31    1
    17    27    28   ar
    18    30    31    1
    19    29    24   ar
    20    15    11   ar
    21    16    15    1
    22    17    14   ar
    23     7     1   am
    24     9    24    1
    25    19    20    2
    26    11    12   ar
    27    14    15   ar
    28     1     6    2
    29    24    25   ar
    30    26    27   ar
    31    28    29   ar
    32    17    18    1
    33     7    10    1
@<TRIPOS>MOLECULE
MolPort-007-686-750 ChemDiv-D039-3217 MCULE-4519348974 PubChem-23605095 ZINC000006804283 ZINC06804283
 31 33 0 0 0
SMALL
GASTEIGER

@<TRIPOS>ATOM
      1 C          10.4926   41.8925    7.9681 C.2     1  UNL1        0.3088
      2 C           8.0099   41.8681    7.5816 C.3     1  UNL1        0.1164
      3 C           6.9556   40.9058    8.1185 C.3     1  UNL1        0.1124
      4 C           7.8542   41.1884   10.4321 C.3     1  UNL1        0.1124
      5 C           8.9195   42.1476    9.9092 C.3     1  UNL1        0.1164
      6 O          10.6827   41.7672    6.7274 O.2     1  UNL1       -0.2522
      7 N          11.6066   42.0218    8.8614 N.am    1  UNL1       -0.2552
      8 N           9.1568   41.8974    8.4884 N.am    1  UNL1       -0.2604
      9 N           6.7049   41.1981    9.5287 N.pl3   1  UNL1       -0.3041
     10 H          11.4098   42.1106    9.8220 H       1  UNL1        0.1578
     11 C          15.1411   41.5638    8.3894 C.ar    1  UNL1        0.0857
     12 C          14.7974   42.5102    7.4310 C.ar    1  UNL1        0.0408
     13 C          15.7258   43.1538    6.4595 C.3     1  UNL1        0.0500
     14 C          12.9831   42.0318    8.4661 C.ar    1  UNL1        0.1085
     15 C          13.9649   41.2623    9.0512 C.ar    1  UNL1        0.0153
     16 C          13.7731   40.3021   10.1763 C.3     1  UNL1        0.0342
     17 N          13.4807   42.7986    7.4749 N.ar    1  UNL1       -0.3451
     18 H          12.9884   43.4330    6.9054 H       1  UNL1        0.1668
     19 C          16.4794   40.9964    8.6524 C.2     1  UNL1        0.3421
     20 O          17.5141   41.6467    8.3399 O.2     1  UNL1       -0.2449
     21 O          16.5963   39.7390    9.2486 O.3     1  UNL1       -0.4454
     22 C          18.5806   38.8605   10.2659 C.3     1  UNL1        0.0513
     23 C          17.2542   39.5547   10.4932 C.3     1  UNL1        0.2089
     24 C           5.3823   41.5097   10.0045 C.ar    1  UNL1        0.0481
     25 C           4.9551   41.0683   11.2671 C.ar    1  UNL1        0.0176
     26 C           3.6718   41.3713   11.7302 C.ar    1  UNL1        0.0382
     27 C           2.7947   42.1199   10.9404 C.ar    1  UNL1        0.1388
     28 C           3.2148   42.5646    9.6772 C.ar    1  UNL1        0.0382
     29 C           4.4979   42.2614    9.2145 C.ar    1  UNL1        0.0176
     30 C           1.2485   42.5740   12.8168 C.3     1  UNL1        0.2525
     31 O           1.5181   42.4062   11.4318 O.3     1  UNL1       -0.4714
@<TRIPOS>BOND
     1    22    23    1
     2    23    21    1
     3    19    21    1
     4    19    11    1
     5    12    17   ar
     6    13    12    1
     7    14     7    1
     8     1     8   am
     9     2     8    1
    10     2     3    1
    11     3     9    1
    12     4     9    1
    13     4     5    1
    14     5     8    1
    15    25    26   ar
    16    27    31    1
    17    27    28   ar
    18    30    31    1
    19    29    24   ar
    20    15    11   ar
    21    16    15    1
    22    17    14   ar
    23     7     1   am
    24     9    24    1
    25    19    20    2
    26    11    12   ar
    27    14    15   ar
    28     1     6    2
    29    24    25   ar
    30    26    27   ar
    31    28    29   ar
    32    17    18    1
    33     7    10    1
@<TRIPOS>MOLECULE
MolPort-007-686-750 ChemDiv-D039-3217 MCULE-4519348974 PubChem-23605095 ZINC000006804283 ZINC06804283
 31 33 0 0 0
SMALL
GASTEIGER

@<TRIPOS>ATOM
      1 C           8.2582   40.3641    5.8502 C.2     1  UNL1        0.3088
      2 C           8.7156   38.6556    4.0653 C.3     1  UNL1        0.1164
      3 C          10.0241   38.3222    3.3563 C.3     1  UNL1        0.1124
      4 C          11.1953   38.1696    5.5575 C.3     1  UNL1        0.1124
      5 C           9.8954   38.5090    6.2811 C.3     1  UNL1        0.1164
      6 O           7.4204   40.9253    5.0923 O.2     1  UNL1       -0.2522
      7 N           8.4775   40.8582    7.1781 N.am    1  UNL1       -0.2552
      8 N           9.0005   39.2319    5.3788 N.am    1  UNL1       -0.2604
      9 N          10.8878   37.5665    4.2617 N.pl3   1  UNL1       -0.3041
     10 H           9.1457   40.3923    7.7309 H       1  UNL1        0.1578
     11 C           6.2024   43.2449    8.6110 C.ar    1  UNL1        0.0857
     12 C           7.4208   43.9140    8.5966 C.ar    1  UNL1        0.0408
     13 C           7.6659   45.3031    9.0765 C.3     1  UNL1        0.0500
     14 C           7.8008   41.9766    7.7634 C.ar    1  UNL1        0.1085
     15 C           6.4581   41.9974    8.0718 C.ar    1  UNL1        0.0153
     16 C           5.4908   40.8828    7.8558 C.3     1  UNL1        0.0342
     17 N           8.3991   43.1428    8.0796 N.ar    1  UNL1       -0.3451
     18 H           9.3468   43.3805    7.9590 H       1  UNL1        0.1668
     19 C           4.9035   43.7538    9.0968 C.2     1  UNL1        0.3421
     20 O           4.4267   44.8220    8.6248 O.2     1  UNL1       -0.2449
     21 O           4.2044   43.0493   10.0791 O.3     1  UNL1       -0.4454
     22 C           4.2658   40.9363   11.2085 C.3     1  UNL1        0.0513
     23 C           4.8699   42.3205   11.0998 C.3     1  UNL1        0.2089
     24 C          11.3939   36.2674    3.9025 C.ar    1  UNL1        0.0481
     25 C          12.7604   35.9722    4.0332 C.ar    1  UNL1        0.0176
     26 C          13.2524   34.7111    3.6858 C.ar    1  UNL1        0.0382
     27 C          12.3881   33.7246    3.2026 C.ar    1  UNL1        0.1388
     28 C          11.0209   34.0125    3.0693 C.ar    1  UNL1        0.0382
     29 C          10.5294   35.2735    3.4167 C.ar    1  UNL1        0.0176
     30 C          12.0975   31.3194    2.7038 C.3     1  UNL1        0.2525
     31 O          12.9109   32.4737    2.8637 O.3     1  UNL1       -0.4714
@<TRIPOS>BOND
     1    22    23    1
     2    23    21    1
     3    19    21    1
     4    19    11    1
     5    12    17   ar
     6    13    12    1
     7    14     7    1
     8     1     8   am
     9     2     8    1
    10     2     3    1
    11     3     9    1
    12     4     9    1
    13     4     5    1
    14     5     8    1
    15    25    26   ar
    16    27    31    1
    17    27    28   ar
    18    30    31    1
    19    29    24   ar
    20    15    11   ar
    21    16    15    1
    22    17    14   ar
    23     7     1   am
    24     9    24    1
    25    19    20    2
    26    11    12   ar
    27    14    15   ar
    28     1     6    2
    29    24    25   ar
    30    26    27   ar
    31    28    29   ar
    32    17    18    1
    33     7    10    1
@<TRIPOS>MOLECULE
MolPort-007-686-750 ChemDiv-D039-3217 MCULE-4519348974 PubChem-23605095 ZINC000006804283 ZINC06804283
 31 33 0 0 0
SMALL
GASTEIGER

@<TRIPOS>ATOM
      1 C           1.4900   38.3932   12.6333 C.2     1  UNL1        0.3088
      2 C           2.0657   39.0688   10.2826 C.3     1  UNL1        0.1164
      3 C           2.4843   40.4320    9.7416 C.3     1  UNL1        0.1124
      4 C           4.1914   40.6434   11.5530 C.3     1  UNL1        0.1124
      5 C           3.7792   39.2840   12.1104 C.3     1  UNL1        0.1164
      6 O           0.3404   38.0457   12.2473 O.2     1  UNL1       -0.2522
      7 N           1.8778   38.2164   14.0022 N.am    1  UNL1       -0.2552
      8 N           2.4101   38.9753   11.7008 N.am    1  UNL1       -0.2604
      9 N           3.8674   40.7039   10.1287 N.pl3   1  UNL1       -0.3041
     10 H           2.7824   38.5083   14.2587 H       1  UNL1        0.1578
     11 C          -0.6249   37.3427   16.4308 C.ar    1  UNL1        0.0857
     12 C           0.3340   36.3457   16.5681 C.ar    1  UNL1        0.0408
     13 C           0.2827   35.2029   17.5227 C.3     1  UNL1        0.0500
     14 C           1.0526   37.6484   15.0258 C.ar    1  UNL1        0.1085
     15 C          -0.1522   38.1773   15.4346 C.ar    1  UNL1        0.0153
     16 C          -0.7980   39.4089   14.8955 C.3     1  UNL1        0.0342
     17 N           1.3598   36.5292   15.7119 N.ar    1  UNL1       -0.3451
     18 H           2.1612   35.9665   15.6099 H       1  UNL1        0.1668
     19 C          -1.8852   37.4875   17.1878 C.2     1  UNL1        0.3421
     20 O          -2.4540   36.4696   17.6690 O.2     1  UNL1       -0.2449
     21 O          -2.4448   38.7538   17.3702 O.3     1  UNL1       -0.4454
     22 C          -1.5779   40.4437   15.9083 C.3     1  UNL1        0.0513
     23 C          -1.6594   39.9361   17.3326 C.3     1  UNL1        0.2089
     24 C           4.8768   40.9935    9.1438 C.ar    1  UNL1        0.0481
     25 C           4.6265   41.9150    8.1143 C.ar    1  UNL1        0.0176
     26 C           5.6062   42.1975    7.1585 C.ar    1  UNL1        0.0382
     27 C           6.8512   41.5649    7.2153 C.ar    1  UNL1        0.1388
     28 C           7.1085   40.6427    8.2415 C.ar    1  UNL1        0.0382
     29 C           6.1288   40.3604    9.1969 C.ar    1  UNL1        0.0176
     30 C           8.8530   42.8083    6.4638 C.3     1  UNL1        0.2525
     31 O           7.8096   41.8688    6.2447 O.3     1  UNL1       -0.4714
@<TRIPOS>BOND
     1    22    23    1
     2    23    21    1
     3    19    21    1
     4    19    11    1
     5    12    17   ar
     6    13    12    1
     7    14     7    1
     8     1     8   am
     9     2     8    1
    10     2     3    1
    11     3     9    1
    12     4     9    1
    13     4     5    1
    14     5     8    1
    15    25    26   ar
    16    27    31    1
    17    27    28   ar
    18    30    31    1
    19    29    24   ar
    20    15    11   ar
    21    16    15    1
    22    17    14   ar
    23     7     1   am
    24     9    24    1
    25    19    20    2
    26    11    12   ar
    27    14    15   ar
    28     1     6    2
    29    24    25   ar
    30    26    27   ar
    31    28    29   ar
    32    17    18    1
    33     7    10    1
@<TRIPOS>MOLECULE
MolPort-007-686-750 ChemDiv-D039-3217 MCULE-4519348974 PubChem-23605095 ZINC000006804283 ZINC06804283
 31 33 0 0 0
SMALL
GASTEIGER

@<TRIPOS>ATOM
      1 C          14.5808   37.3461    9.6715 C.2     1  UNL1        0.3088
      2 C          12.8337   38.7540   10.8026 C.3     1  UNL1        0.1164
      3 C          12.6634   40.2696   10.8046 C.3     1  UNL1        0.1124
      4 C          12.8797   40.3122    8.3163 C.3     1  UNL1        0.1124
      5 C          13.0585   38.7969    8.2985 C.3     1  UNL1        0.1164
      6 O          14.9355   36.8922   10.7938 O.2     1  UNL1       -0.2522
      7 N          15.2081   36.8776    8.4705 N.am    1  UNL1       -0.2552
      8 N          13.5514   38.3410    9.5973 N.am    1  UNL1       -0.2604
      9 N          12.1334   40.7001    9.5121 N.pl3   1  UNL1       -0.3041
     10 H          14.9030   37.2652    7.6184 H       1  UNL1        0.1578
     11 C          17.2719   33.9343    8.4148 C.ar    1  UNL1        0.0857
     12 C          18.1762   34.9777    8.2542 C.ar    1  UNL1        0.0408
     13 C          19.6524   34.8450    8.1013 C.3     1  UNL1        0.0500
     14 C          16.2437   35.8900    8.4129 C.ar    1  UNL1        0.1085
     15 C          16.0294   34.5328    8.5163 C.ar    1  UNL1        0.0153
     16 C          14.7090   33.8648    8.7026 C.3     1  UNL1        0.0342
     17 N          17.5522   36.1733    8.2527 N.ar    1  UNL1       -0.3451
     18 H          17.9638   37.0623    8.1555 H       1  UNL1        0.1668
     19 C          17.5687   32.4882    8.4685 C.2     1  UNL1        0.3421
     20 O          18.1586   32.0009    9.4714 O.2     1  UNL1       -0.2449
     21 O          17.1939   31.6619    7.4070 O.3     1  UNL1       -0.4454
     22 C          16.0980   32.1648    5.3357 C.3     1  UNL1        0.0513
     23 C          17.4238   32.0245    6.0537 C.3     1  UNL1        0.2089
     24 C          10.9102   41.4535    9.4186 C.ar    1  UNL1        0.0481
     25 C          10.8278   42.7505    9.9502 C.ar    1  UNL1        0.0176
     26 C           9.6411   43.4829    9.8589 C.ar    1  UNL1        0.0382
     27 C           8.5179   42.9325    9.2351 C.ar    1  UNL1        0.1388
     28 C           8.5928   41.6367    8.7013 C.ar    1  UNL1        0.0382
     29 C           9.7794   40.9047    8.7929 C.ar    1  UNL1        0.0176
     30 C           6.7595   44.0765    7.9246 C.3     1  UNL1        0.2525
     31 O           7.3461   43.6904    9.1600 O.3     1  UNL1       -0.4714
@<TRIPOS>BOND
     1    22    23    1
     2    23    21    1
     3    19    21    1
     4    19    11    1
     5    12    17   ar
     6    13    12    1
     7    14     7    1
     8     1     8   am
     9     2     8    1
    10     2     3    1
    11     3     9    1
    12     4     9    1
    13     4     5    1
    14     5     8    1
    15    25    26   ar
    16    27    31    1
    17    27    28   ar
    18    30    31    1
    19    29    24   ar
    20    15    11   ar
    21    16    15    1
    22    17    14   ar
    23     7     1   am
    24     9    24    1
    25    19    20    2
    26    11    12   ar
    27    14    15   ar
    28     1     6    2
    29    24    25   ar
    30    26    27   ar
    31    28    29   ar
    32    17    18    1
    33     7    10    1
@<TRIPOS>MOLECULE
MolPort-007-686-750 ChemDiv-D039-3217 MCULE-4519348974 PubChem-23605095 ZINC000006804283 ZINC06804283
 31 33 0 0 0
SMALL
GASTEIGER

@<TRIPOS>ATOM
      1 C          12.2060   41.5808    9.3030 C.2     1  UNL1        0.3088
      2 C          10.0773   42.8366    8.8498 C.3     1  UNL1        0.1164
      3 C           8.7881   42.3525    8.1943 C.3     1  UNL1        0.1124
      4 C           8.7610   40.3521    9.6902 C.3     1  UNL1        0.1124
      5 C          10.0544   40.8196   10.3512 C.3     1  UNL1        0.1164
      6 O          12.8392   42.4045    8.5875 O.2     1  UNL1       -0.2522
      7 N          12.9004   40.5192    9.9712 N.am    1  UNL1       -0.2552
      8 N          10.7844   41.7019    9.4421 N.am    1  UNL1       -0.2604
      9 N           8.0551   41.5047    9.1328 N.pl3   1  UNL1       -0.3041
     10 H          12.3637   39.8969   10.5133 H       1  UNL1        0.1578
     11 C          16.3078   39.4119   10.2693 C.ar    1  UNL1        0.0857
     12 C          16.3859   40.5005    9.4083 C.ar    1  UNL1        0.0408
     13 C          17.6270   41.0401    8.7849 C.3     1  UNL1        0.0500
     14 C          14.3134   40.2931    9.9118 C.ar    1  UNL1        0.1085
     15 C          14.9680   39.2868   10.5882 C.ar    1  UNL1        0.0153
     16 C          14.3352   38.2754   11.4832 C.3     1  UNL1        0.0342
     17 N          15.1702   41.0412    9.1879 N.ar    1  UNL1       -0.3451
     18 H          14.9546   41.8160    8.6201 H       1  UNL1        0.1668
     19 C          17.4183   38.5639   10.7485 C.2     1  UNL1        0.3421
     20 O          18.4460   39.0937   11.2529 O.2     1  UNL1       -0.2449
     21 O          17.3273   37.1744   10.6429 O.3     1  UNL1       -0.4454
     22 C          18.7703   36.3825    8.9009 C.3     1  UNL1        0.0513
     23 C          17.3421   36.5127    9.3868 C.3     1  UNL1        0.2089
     24 C           6.7003   41.8079    9.5139 C.ar    1  UNL1        0.0481
     25 C           6.2189   41.4514   10.7838 C.ar    1  UNL1        0.0176
     26 C           4.9042   41.7464   11.1550 C.ar    1  UNL1        0.0382
     27 C           4.0493   42.4020   10.2645 C.ar    1  UNL1        0.1388
     28 C           4.5237   42.7615    8.9935 C.ar    1  UNL1        0.0382
     29 C           5.8381   42.4664    8.6227 C.ar    1  UNL1        0.0176
     30 C           2.2133   42.2606   11.9159 C.3     1  UNL1        0.2525
     31 O           2.7403   42.6827   10.6655 O.3     1  UNL1       -0.4714
@<TRIPOS>BOND
     1    22    23    1
     2    23    21    1
     3    19    21    1
     4    19    11    1
     5    12    17   ar
     6    13    12    1
     7    14     7    1
     8     1     8   am
     9     2     8    1
    10     2     3    1
    11     3     9    1
    12     4     9    1
    13     4     5    1
    14     5     8    1
    15    25    26   ar
    16    27    31    1
    17    27    28   ar
    18    30    31    1
    19    29    24   ar
    20    15    11   ar
    21    16    15    1
    22    17    14   ar
    23     7     1   am
    24     9    24    1
    25    19    20    2
    26    11    12   ar
    27    14    15   ar
    28     1     6    2
    29    24    25   ar
    30    26    27   ar
    31    28    29   ar
    32    17    18    1
    33     7    10    1
@<TRIPOS>MOLECULE
MolPort-007-686-750 ChemDiv-D039-3217 MCULE-4519348974 PubChem-23605095 ZINC000006804283 ZINC06804283
 31 33 0 0 0
SMALL
GASTEIGER

@<TRIPOS>ATOM
      1 C          12.5161   38.0525    7.1529 C.2     1  UNL1        0.3088
      2 C          10.5996   39.4709    6.3596 C.3     1  UNL1        0.1164
      3 C           9.1397   39.4607    6.8007 C.3     1  UNL1        0.1124
      4 C           9.8468   39.5467    9.1950 C.3     1  UNL1        0.1124
      5 C          11.3123   39.5505    8.7698 C.3     1  UNL1        0.1164
      6 O          12.6755   37.6190    5.9790 O.2     1  UNL1       -0.2522
      7 N          13.3977   37.6361    8.2040 N.am    1  UNL1       -0.2552
      8 N          11.4434   38.9594    7.4390 N.am    1  UNL1       -0.2604
      9 N           9.0253   40.0906    8.1148 N.pl3   1  UNL1       -0.3041
     10 H          13.2306   37.9954    9.1052 H       1  UNL1        0.1578
     11 C          16.0784   35.2594    8.5049 C.ar    1  UNL1        0.0857
     12 C          16.1094   35.6278    7.1648 C.ar    1  UNL1        0.0408
     13 C          17.0610   35.1213    6.1363 C.3     1  UNL1        0.0500
     14 C          14.5024   36.7383    8.0459 C.ar    1  UNL1        0.1085
     15 C          15.0395   35.9809    9.0639 C.ar    1  UNL1        0.0153
     16 C          14.5761   35.9612   10.4814 C.3     1  UNL1        0.0342
     17 N          15.1486   36.5307    6.8809 N.ar    1  UNL1       -0.3451
     18 H          14.9597   36.9487    6.0098 H       1  UNL1        0.1668
     19 C          16.9666   34.3010    9.1940 C.2     1  UNL1        0.3421
     20 O          18.0574   34.6947    9.6904 O.2     1  UNL1       -0.2449
     21 O          16.5954   32.9587    9.2955 O.3     1  UNL1       -0.4454
     22 C          15.0998   31.2035    8.6422 C.3     1  UNL1        0.0513
     23 C          16.1185   32.2234    8.1785 C.3     1  UNL1        0.2089
     24 C           8.1579   41.2192    8.3306 C.ar    1  UNL1        0.0481
     25 C           7.2265   41.6014    7.3519 C.ar    1  UNL1        0.0176
     26 C           6.3833   42.6962    7.5610 C.ar    1  UNL1        0.0382
     27 C           6.4563   43.4265    8.7504 C.ar    1  UNL1        0.1388
     28 C           7.3848   43.0502    9.7333 C.ar    1  UNL1        0.0382
     29 C           8.2277   41.9557    9.5239 C.ar    1  UNL1        0.0176
     30 C           4.3271   44.6030    8.3028 C.3     1  UNL1        0.2525
     31 O           5.5996   44.5161    8.9293 O.3     1  UNL1       -0.4714
@<TRIPOS>BOND
     1    22    23    1
     2    23    21    1
     3    19    21    1
     4    19    11    1
     5    12    17   ar
     6    13    12    1
     7    14     7    1
     8     1     8   am
     9     2     8    1
    10     2     3    1
    11     3     9    1
    12     4     9    1
    13     4     5    1
    14     5     8    1
    15    25    26   ar
    16    27    31    1
    17    27    28   ar
    18    30    31    1
    19    29    24   ar
    20    15    11   ar
    21    16    15    1
    22    17    14   ar
    23     7     1   am
    24     9    24    1
    25    19    20    2
    26    11    12   ar
    27    14    15   ar
    28     1     6    2
    29    24    25   ar
    30    26    27   ar
    31    28    29   ar
    32    17    18    1
    33     7    10    1
@<TRIPOS>MOLECULE
MolPort-007-686-750 ChemDiv-D039-3217 MCULE-4519348974 PubChem-23605095 ZINC000006804283 ZINC06804283
 31 33 0 0 0
SMALL
GASTEIGER

@<TRIPOS>ATOM
      1 C          10.5792   39.6949    4.9824 C.2     1  UNL1        0.3088
      2 C           9.4474   39.2110    2.7918 C.3     1  UNL1        0.1164
      3 C           9.2474   37.8778    2.0787 C.3     1  UNL1        0.1124
      4 C           8.3684   36.8653    4.1864 C.3     1  UNL1        0.1124
      5 C           8.5692   38.1906    4.9156 C.3     1  UNL1        0.1164
      6 O          11.3970   40.4496    4.3883 O.2     1  UNL1       -0.2522
      7 N          10.6417   39.5385    6.4062 N.am    1  UNL1       -0.2552
      8 N           9.5878   38.9840    4.2296 N.am    1  UNL1       -0.2604
      9 N           8.1988   37.1175    2.7564 N.pl3   1  UNL1       -0.3041
     10 H           9.9872   38.9342    6.8254 H       1  UNL1        0.1578
     11 C          13.3576   40.5620    8.5279 C.ar    1  UNL1        0.0857
     12 C          12.5286   41.6771    8.4877 C.ar    1  UNL1        0.0408
     13 C          12.7632   42.9718    9.1867 C.3     1  UNL1        0.0500
     14 C          11.5816   40.1924    7.2666 C.ar    1  UNL1        0.1085
     15 C          12.7382   39.6107    7.7381 C.ar    1  UNL1        0.0153
     16 C          13.2076   38.2262    7.4426 C.3     1  UNL1        0.0342
     17 N          11.4431   41.4551    7.7187 N.ar    1  UNL1       -0.3451
     18 H          10.7074   42.0810    7.5282 H       1  UNL1        0.1668
     19 C          14.6324   40.4160    9.2598 C.2     1  UNL1        0.3421
     20 O          15.7062   40.8377    8.7493 O.2     1  UNL1       -0.2449
     21 O          14.6460   39.8113   10.5184 O.3     1  UNL1       -0.4454
     22 C          12.8935   38.6869   11.7053 C.3     1  UNL1        0.0513
     23 C          14.0579   38.5396   10.7486 C.3     1  UNL1        0.2089
     24 C           7.0319   36.6581    2.0493 C.ar    1  UNL1        0.0481
     25 C           6.8766   35.2986    1.7346 C.ar    1  UNL1        0.0176
     26 C           5.7437   34.8517    1.0491 C.ar    1  UNL1        0.0382
     27 C           4.7477   35.7548    0.6671 C.ar    1  UNL1        0.1388
     28 C           4.8960   37.1152    0.9783 C.ar    1  UNL1        0.0382
     29 C           6.0289   37.5617    1.6636 C.ar    1  UNL1        0.0176
     30 C           2.4933   36.0873   -0.2948 C.3     1  UNL1        0.2525
     31 O           3.6269   35.2766   -0.0172 O.3     1  UNL1       -0.4714
@<TRIPOS>BOND
     1    22    23    1
     2    23    21    1
     3    19    21    1
     4    19    11    1
     5    12    17   ar
     6    13    12    1
     7    14     7    1
     8     1     8   am
     9     2     8    1
    10     2     3    1
    11     3     9    1
    12     4     9    1
    13     4     5    1
    14     5     8    1
    15    25    26   ar
    16    27    31    1
    17    27    28   ar
    18    30    31    1
    19    29    24   ar
    20    15    11   ar
    21    16    15    1
    22    17    14   ar
    23     7     1   am
    24     9    24    1
    25    19    20    2
    26    11    12   ar
    27    14    15   ar
    28     1     6    2
    29    24    25   ar
    30    26    27   ar
    31    28    29   ar
    32    17    18    1
    33     7    10    1
@<TRIPOS>MOLECULE
MolPort-007-686-750 ChemDiv-D039-3217 MCULE-4519348974 PubChem-23605095 ZINC000006804283 ZINC06804283
 31 33 0 0 0
SMALL
GASTEIGER

@<TRIPOS>ATOM
      1 C           9.1525   40.3094    9.2362 C.2     1  UNL1        0.3088
      2 C          11.1555   39.1099    8.3072 C.3     1  UNL1        0.1164
      3 C          12.5385   39.6549    7.9659 C.3     1  UNL1        0.1124
      4 C          12.6727   40.7575   10.2033 C.3     1  UNL1        0.1124
      5 C          11.2870   40.2254   10.5570 C.3     1  UNL1        0.1164
      6 O           8.4889   39.9840    8.2139 O.2     1  UNL1       -0.2522
      7 N           8.5316   41.0466   10.2976 N.am    1  UNL1       -0.2552
      8 N          10.5362   39.9474    9.3336 N.am    1  UNL1       -0.2604
      9 N          13.2861   39.8889    9.2000 N.pl3   1  UNL1       -0.3041
     10 H           9.0905   41.2838   11.0726 H       1  UNL1        0.1578
     11 C           5.2873   42.5156    9.8055 C.ar    1  UNL1        0.0857
     12 C           5.0994   41.6438   10.8718 C.ar    1  UNL1        0.0408
     13 C           3.8226   41.4148   11.6048 C.3     1  UNL1        0.0500
     14 C           7.1620   41.4650   10.3189 C.ar    1  UNL1        0.1085
     15 C           6.6199   42.3931    9.4568 C.ar    1  UNL1        0.0153
     16 C           7.3471   43.1117    8.3709 C.3     1  UNL1        0.0342
     17 N           6.2419   41.0007   11.1882 N.ar    1  UNL1       -0.3451
     18 H           6.3754   40.3350   11.9011 H       1  UNL1        0.1668
     19 C           4.2805   43.3928    9.1739 C.2     1  UNL1        0.3421
     20 O           3.0962   42.9867    9.0197 O.2     1  UNL1       -0.2449
     21 O           4.6425   44.6727    8.7488 O.3     1  UNL1       -0.4454
     22 C           2.8774   45.4605    7.3318 C.3     1  UNL1        0.0513
     23 C           4.3535   45.1407    7.4399 C.3     1  UNL1        0.2089
     24 C          14.5641   39.2671    9.4299 C.ar    1  UNL1        0.0481
     25 C          15.6673   40.0327    9.8402 C.ar    1  UNL1        0.0176
     26 C          16.9079   39.4297   10.0646 C.ar    1  UNL1        0.0382
     27 C          17.0669   38.0529    9.8833 C.ar    1  UNL1        0.1388
     28 C          15.9686   37.2813    9.4734 C.ar    1  UNL1        0.0382
     29 C          14.7284   37.8845    9.2490 C.ar    1  UNL1        0.0176
     30 C          19.2574   37.2355    9.0759 C.3     1  UNL1        0.2525
     31 O          18.3202   37.4800   10.1158 O.3     1  UNL1       -0.4714
@<TRIPOS>BOND
     1    22    23    1
     2    23    21    1
     3    19    21    1
     4    19    11    1
     5    12    17   ar
     6    13    12    1
     7    14     7    1
     8     1     8   am
     9     2     8    1
    10     2     3    1
    11     3     9    1
    12     4     9    1
    13     4     5    1
    14     5     8    1
    15    25    26   ar
    16    27    31    1
    17    27    28   ar
    18    30    31    1
    19    29    24   ar
    20    15    11   ar
    21    16    15    1
    22    17    14   ar
    23     7     1   am
    24     9    24    1
    25    19    20    2
    26    11    12   ar
    27    14    15   ar
    28     1     6    2
    29    24    25   ar
    30    26    27   ar
    31    28    29   ar
    32    17    18    1
    33     7    10    1
