@<TRIPOS>MOLECULE
Molport-046-951-073 MCULE-3394134079 MCULE-8905137122 PubChem-110089534
 22 24 0 0 0
SMALL
GASTEIGER

@<TRIPOS>ATOM
      1 C          13.9757   40.6232    9.3831 C.ar    1  UNL1        0.1522
      2 C          11.7874   41.5139    9.6230 C.ar    1  UNL1        0.0805
      3 C          11.5213   40.5859   10.6374 C.ar    1  UNL1        0.1137
      4 C          13.7018   39.6981   10.3986 C.ar    1  UNL1        0.1332
      5 N          13.0074   41.5074    9.0233 N.ar    1  UNL1       -0.2317
      6 N          12.4842   39.7001   11.0014 N.ar    1  UNL1       -0.2382
      7 C          10.7582   42.5079    9.1887 C.3     1  UNL1        0.0579
      8 C          10.3043   43.3750   10.3685 C.3     1  UNL1        0.0088
      9 C           9.0145   44.1210   10.0312 C.3     1  UNL1        0.0178
     10 C           7.9222   43.1835    9.4866 C.3     1  UNL1        0.0722
     11 C           9.5850   41.8175    8.4751 C.3     1  UNL1        0.0781
     12 C           7.3634   41.0973    8.5840 C.3     1  UNL1        0.0896
     13 N           8.3932   41.8057    9.3208 N.3     1  UNL1       -0.2712
     14 N          15.2428   40.6671    8.7119 N.pl3   1  UNL1       -0.2821
     15 H          15.6883   39.8017    8.5639 H       1  UNL1        0.1551
     16 C          15.3841   44.6193    5.8145 C.3     1  UNL1        0.0521
     17 C          16.0281   43.7526    6.8353 C.ar    1  UNL1        0.0608
     18 C          15.9343   41.8279    8.2320 C.ar    1  UNL1        0.1328
     19 C          17.2042   42.1177    8.7389 C.ar    1  UNL1        0.0344
     20 C          17.8866   43.2453    8.2790 C.ar    1  UNL1        0.0041
     21 C          17.2979   44.0712    7.3205 C.ar    1  UNL1        0.0148
     22 N          15.3798   42.6493    7.2965 N.ar    1  UNL1       -0.2349
@<TRIPOS>BOND
     1    16    17    1
     2    18    22   ar
     3    18    14    1
     4    19    20   ar
     5    21    17   ar
     6     2     5   ar
     7     3     6   ar
     8     4     1   ar
     9     7     2    1
    10     7     8    1
    11     8     9    1
    12     9    10    1
    13    10    13    1
    14    11    13    1
    15    11     7    1
    16    12    13    1
    17    14     1    1
    18    17    22   ar
    19    18    19   ar
    20    20    21   ar
    21     1     5   ar
    22     2     3   ar
    23     4     6   ar
    24    14    15    1
@<TRIPOS>MOLECULE
Molport-046-951-073 MCULE-3394134079 MCULE-8905137122 PubChem-110089534
 22 24 0 0 0
SMALL
GASTEIGER

@<TRIPOS>ATOM
      1 C          12.2861   41.5058    6.4571 C.ar    1  UNL1        0.1522
      2 C          11.8142   40.0367    8.2623 C.ar    1  UNL1        0.0805
      3 C          10.9095   39.3361    7.4551 C.ar    1  UNL1        0.1137
      4 C          11.3794   40.7998    5.6561 C.ar    1  UNL1        0.1332
      5 N          12.4780   41.1027    7.7415 N.ar    1  UNL1       -0.2317
      6 N          10.7133   39.7337    6.1714 N.ar    1  UNL1       -0.2382
      7 C          12.0625   39.6358    9.6813 C.3     1  UNL1        0.0579
      8 C          13.4796   40.0239   10.1184 C.3     1  UNL1        0.0088
      9 C          13.8680   39.3028   11.4080 C.3     1  UNL1        0.0178
     10 C          13.6332   37.7842   11.3222 C.3     1  UNL1        0.0722
     11 C          11.7636   38.1438    9.8977 C.3     1  UNL1        0.0781
     12 C          12.6175   35.9903   10.2133 C.3     1  UNL1        0.0896
     13 N          12.9997   37.3820   10.0635 N.3     1  UNL1       -0.2712
     14 N          13.0170   42.6386    5.9665 N.pl3   1  UNL1       -0.2821
     15 H          12.5762   43.1722    5.2664 H       1  UNL1        0.1551
     16 C          17.0700   41.9698    8.6424 C.3     1  UNL1        0.0521
     17 C          16.2944   42.7809    7.6684 C.ar    1  UNL1        0.0608
     18 C          14.3165   43.0820    6.3796 C.ar    1  UNL1        0.1328
     19 C          14.8249   44.2727    5.8532 C.ar    1  UNL1        0.0344
     20 C          16.0890   44.7140    6.2483 C.ar    1  UNL1        0.0041
     21 C          16.8323   43.9657    7.1621 C.ar    1  UNL1        0.0148
     22 N          15.0609   42.3683    7.2706 N.ar    1  UNL1       -0.2349
@<TRIPOS>BOND
     1    16    17    1
     2    18    22   ar
     3    18    14    1
     4    19    20   ar
     5    21    17   ar
     6     2     5   ar
     7     3     6   ar
     8     4     1   ar
     9     7     2    1
    10     7     8    1
    11     8     9    1
    12     9    10    1
    13    10    13    1
    14    11    13    1
    15    11     7    1
    16    12    13    1
    17    14     1    1
    18    17    22   ar
    19    18    19   ar
    20    20    21   ar
    21     1     5   ar
    22     2     3   ar
    23     4     6   ar
    24    14    15    1
@<TRIPOS>MOLECULE
Molport-046-951-073 MCULE-3394134079 MCULE-8905137122 PubChem-110089534
 22 24 0 0 0
SMALL
GASTEIGER

@<TRIPOS>ATOM
      1 C          13.6414   40.7894    8.6829 C.ar    1  UNL1        0.1522
      2 C          14.7232   39.5433   10.3907 C.ar    1  UNL1        0.0805
      3 C          13.5670   39.6180   11.1771 C.ar    1  UNL1        0.1137
      4 C          12.4886   40.8597    9.4756 C.ar    1  UNL1        0.1332
      5 N          14.7292   40.1310    9.1648 N.ar    1  UNL1       -0.2317
      6 N          12.4771   40.2741   10.7015 N.ar    1  UNL1       -0.2382
      7 C          15.9470   38.8320   10.8726 C.3     1  UNL1        0.0579
      8 C          17.2061   39.6602   10.5922 C.3     1  UNL1        0.0088
      9 C          18.4633   38.8037   10.7325 C.3     1  UNL1        0.0178
     10 C          18.3770   37.5007    9.9181 C.3     1  UNL1        0.0722
     11 C          16.0301   37.4121   10.2901 C.3     1  UNL1        0.0781
     12 C          17.0426   35.9710    8.7524 C.3     1  UNL1        0.0896
     13 N          17.0739   37.3259    9.2709 N.3     1  UNL1       -0.2712
     14 N          13.7107   41.3888    7.3813 N.pl3   1  UNL1       -0.2821
     15 H          13.1579   40.9741    6.6801 H       1  UNL1        0.1551
     16 C          17.8511   43.9958    7.6894 C.3     1  UNL1        0.0521
     17 C          16.4930   43.8069    7.1168 C.ar    1  UNL1        0.0608
     18 C          14.4933   42.5231    6.9855 C.ar    1  UNL1        0.1328
     19 C          13.9569   43.4284    6.0657 C.ar    1  UNL1        0.0344
     20 C          14.7100   44.5364    5.6731 C.ar    1  UNL1        0.0041
     21 C          15.9875   44.7306    6.2000 C.ar    1  UNL1        0.0148
     22 N          15.7432   42.7338    7.4863 N.ar    1  UNL1       -0.2349
@<TRIPOS>BOND
     1    16    17    1
     2    18    22   ar
     3    18    14    1
     4    19    20   ar
     5    21    17   ar
     6     2     5   ar
     7     3     6   ar
     8     4     1   ar
     9     7     2    1
    10     7     8    1
    11     8     9    1
    12     9    10    1
    13    10    13    1
    14    11    13    1
    15    11     7    1
    16    12    13    1
    17    14     1    1
    18    17    22   ar
    19    18    19   ar
    20    20    21   ar
    21     1     5   ar
    22     2     3   ar
    23     4     6   ar
    24    14    15    1
@<TRIPOS>MOLECULE
Molport-046-951-073 MCULE-3394134079 MCULE-8905137122 PubChem-110089534
 22 24 0 0 0
SMALL
GASTEIGER

@<TRIPOS>ATOM
      1 C           9.1342   42.4411   10.6761 C.ar    1  UNL1        0.1522
      2 C          10.9521   41.4391    9.5227 C.ar    1  UNL1        0.0805
      3 C          11.5484   42.6969    9.3705 C.ar    1  UNL1        0.1137
      4 C           9.7370   43.6958   10.5198 C.ar    1  UNL1        0.1332
      5 N           9.7611   41.3452   10.1714 N.ar    1  UNL1       -0.2317
      6 N          10.9273   43.7955    9.8723 N.ar    1  UNL1       -0.2382
      7 C          11.5986   40.2018    8.9867 C.3     1  UNL1        0.0579
      8 C          11.2379   38.9824    9.8428 C.3     1  UNL1        0.0088
      9 C          12.1687   37.8097    9.5391 C.3     1  UNL1        0.0178
     10 C          13.6536   38.2079    9.6110 C.3     1  UNL1        0.0722
     11 C          13.1164   40.3897    8.8332 C.3     1  UNL1        0.0781
     12 C          15.2522   39.9171    9.6585 C.3     1  UNL1        0.0896
     13 N          13.8417   39.6403    9.8568 N.3     1  UNL1       -0.2712
     14 N           7.8787   42.2761   11.3504 N.pl3   1  UNL1       -0.2821
     15 H           7.8725   42.4724   12.3151 H       1  UNL1        0.1551
     16 C           3.5914   39.9381   11.7843 C.3     1  UNL1        0.0521
     17 C           4.5445   40.7295   10.9636 C.ar    1  UNL1        0.0608
     18 C           6.6318   41.8577   10.7792 C.ar    1  UNL1        0.1328
     19 C           6.3415   42.2065    9.4573 C.ar    1  UNL1        0.0344
     20 C           5.1305   41.8046    8.8909 C.ar    1  UNL1        0.0041
     21 C           4.2228   41.0608    9.6460 C.ar    1  UNL1        0.0148
     22 N           5.7297   41.1309   11.4969 N.ar    1  UNL1       -0.2349
@<TRIPOS>BOND
     1    16    17    1
     2    18    22   ar
     3    18    14    1
     4    19    20   ar
     5    21    17   ar
     6     2     5   ar
     7     3     6   ar
     8     4     1   ar
     9     7     2    1
    10     7     8    1
    11     8     9    1
    12     9    10    1
    13    10    13    1
    14    11    13    1
    15    11     7    1
    16    12    13    1
    17    14     1    1
    18    17    22   ar
    19    18    19   ar
    20    20    21   ar
    21     1     5   ar
    22     2     3   ar
    23     4     6   ar
    24    14    15    1
@<TRIPOS>MOLECULE
Molport-046-951-073 MCULE-3394134079 MCULE-8905137122 PubChem-110089534
 22 24 0 0 0
SMALL
GASTEIGER

@<TRIPOS>ATOM
      1 C          13.0958   41.0590    8.4079 C.ar    1  UNL1        0.1522
      2 C          11.5173   41.2796   10.1684 C.ar    1  UNL1        0.0805
      3 C          12.1542   40.2474   10.8682 C.ar    1  UNL1        0.1137
      4 C          13.7272   40.0271    9.1142 C.ar    1  UNL1        0.1332
      5 N          12.0054   41.6575    8.9571 N.ar    1  UNL1       -0.2317
      6 N          13.2437   39.6454   10.3252 N.ar    1  UNL1       -0.2382
      7 C          10.3148   41.9713   10.7265 C.3     1  UNL1        0.0579
      8 C           9.6743   41.1379   11.8424 C.3     1  UNL1        0.0088
      9 C           8.2655   41.6389   12.1555 C.3     1  UNL1        0.0178
     10 C           7.3961   41.7667   10.8921 C.3     1  UNL1        0.0722
     11 C           9.3187   42.3378    9.6148 C.3     1  UNL1        0.0781
     12 C           7.2886   41.8650    8.5559 C.3     1  UNL1        0.0896
     13 N           8.1403   41.4749    9.6639 N.3     1  UNL1       -0.2712
     14 N          13.5621   41.5032    7.1259 N.pl3   1  UNL1       -0.2821
     15 H          13.2437   40.9943    6.3456 H       1  UNL1        0.1551
     16 C          17.8039   43.8361    7.8999 C.3     1  UNL1        0.0521
     17 C          16.4905   43.7561    7.2095 C.ar    1  UNL1        0.0608
     18 C          14.4390   42.6040    6.8519 C.ar    1  UNL1        0.1328
     19 C          14.0351   43.5802    5.9369 C.ar    1  UNL1        0.0344
     20 C          14.8808   44.6564    5.6622 C.ar    1  UNL1        0.0041
     21 C          16.1182   44.7487    6.3009 C.ar    1  UNL1        0.0148
     22 N          15.6520   42.7156    7.4630 N.ar    1  UNL1       -0.2349
@<TRIPOS>BOND
     1    16    17    1
     2    18    22   ar
     3    18    14    1
     4    19    20   ar
     5    21    17   ar
     6     2     5   ar
     7     3     6   ar
     8     4     1   ar
     9     7     2    1
    10     7     8    1
    11     8     9    1
    12     9    10    1
    13    10    13    1
    14    11    13    1
    15    11     7    1
    16    12    13    1
    17    14     1    1
    18    17    22   ar
    19    18    19   ar
    20    20    21   ar
    21     1     5   ar
    22     2     3   ar
    23     4     6   ar
    24    14    15    1
@<TRIPOS>MOLECULE
Molport-046-951-073 MCULE-3394134079 MCULE-8905137122 PubChem-110089534
 22 24 0 0 0
SMALL
GASTEIGER

@<TRIPOS>ATOM
      1 C          12.3480   41.4417    7.4978 C.ar    1  UNL1        0.1522
      2 C          10.2432   40.6866    8.2974 C.ar    1  UNL1        0.0805
      3 C          10.8087   40.4435    9.5552 C.ar    1  UNL1        0.1137
      4 C          12.9062   41.1958    8.7588 C.ar    1  UNL1        0.1332
      5 N          11.0282   41.1792    7.3027 N.ar    1  UNL1       -0.2317
      6 N          12.1263   40.7036    9.7566 N.ar    1  UNL1       -0.2382
      7 C           8.7974   40.4153    8.0290 C.3     1  UNL1        0.0579
      8 C           8.6343   39.3926    6.8987 C.3     1  UNL1        0.0088
      9 C           7.2007   39.3887    6.3710 C.3     1  UNL1        0.0178
     10 C           6.7055   40.8013    6.0132 C.3     1  UNL1        0.0722
     11 C           8.0273   41.7188    7.7640 C.3     1  UNL1        0.0781
     12 C           7.0030   43.1160    6.1940 C.3     1  UNL1        0.0896
     13 N           7.6804   41.8424    6.3498 N.3     1  UNL1       -0.2712
     14 N          13.1231   41.9606    6.4078 N.pl3   1  UNL1       -0.2821
     15 H          12.8390   41.6927    5.5041 H       1  UNL1        0.1551
     16 C          17.6202   42.8985    8.1199 C.3     1  UNL1        0.0521
     17 C          16.4477   43.3044    7.3023 C.ar    1  UNL1        0.0608
     18 C          14.2646   42.8249    6.4849 C.ar    1  UNL1        0.1328
     19 C          14.2466   44.0347    5.7852 C.ar    1  UNL1        0.0344
     20 C          15.3524   44.8840    5.8529 C.ar    1  UNL1        0.0041
     21 C          16.4628   44.5200    6.6157 C.ar    1  UNL1        0.0148
     22 N          15.3604   42.4909    7.2231 N.ar    1  UNL1       -0.2349
@<TRIPOS>BOND
     1    16    17    1
     2    18    22   ar
     3    18    14    1
     4    19    20   ar
     5    21    17   ar
     6     2     5   ar
     7     3     6   ar
     8     4     1   ar
     9     7     2    1
    10     7     8    1
    11     8     9    1
    12     9    10    1
    13    10    13    1
    14    11    13    1
    15    11     7    1
    16    12    13    1
    17    14     1    1
    18    17    22   ar
    19    18    19   ar
    20    20    21   ar
    21     1     5   ar
    22     2     3   ar
    23     4     6   ar
    24    14    15    1
@<TRIPOS>MOLECULE
Molport-046-951-073 MCULE-3394134079 MCULE-8905137122 PubChem-110089534
 22 24 0 0 0
SMALL
GASTEIGER

@<TRIPOS>ATOM
      1 C          14.1305   39.9795    9.4442 C.ar    1  UNL1        0.1522
      2 C          11.7989   40.3295    9.7278 C.ar    1  UNL1        0.0805
      3 C          11.6698   39.0392   10.2562 C.ar    1  UNL1        0.1137
      4 C          13.9932   38.6899    9.9738 C.ar    1  UNL1        0.1332
      5 N          13.0258   40.7648    9.3361 N.ar    1  UNL1       -0.2317
      6 N          12.7694   38.2498   10.3669 N.ar    1  UNL1       -0.2382
      7 C          10.6166   41.2341    9.5867 C.3     1  UNL1        0.0579
      8 C          11.0300   42.7018    9.7448 C.3     1  UNL1        0.0088
      9 C           9.8081   43.5897    9.9739 C.3     1  UNL1        0.0178
     10 C           8.9098   43.0667   11.1088 C.3     1  UNL1        0.0722
     11 C           9.4891   40.8293   10.5496 C.3     1  UNL1        0.0781
     12 C           8.3217   41.2950   12.5210 C.3     1  UNL1        0.0896
     13 N           9.3724   41.7853   11.6488 N.3     1  UNL1       -0.2712
     14 N          15.3973   40.4967    9.0131 N.pl3   1  UNL1       -0.2821
     15 H          16.1947   40.0017    9.3104 H       1  UNL1        0.1551
     16 C          18.3390   44.1565    7.6035 C.3     1  UNL1        0.0521
     17 C          17.0427   43.4380    7.4966 C.ar    1  UNL1        0.0608
     18 C          15.6343   41.6527    8.1985 C.ar    1  UNL1        0.1328
     19 C          14.6349   42.0778    7.3188 C.ar    1  UNL1        0.0344
     20 C          14.8546   43.2019    6.5208 C.ar    1  UNL1        0.0041
     21 C          16.0658   43.8897    6.6072 C.ar    1  UNL1        0.0148
     22 N          16.8089   42.3405    8.2653 N.ar    1  UNL1       -0.2349
@<TRIPOS>BOND
     1    16    17    1
     2    18    22   ar
     3    18    14    1
     4    19    20   ar
     5    21    17   ar
     6     2     5   ar
     7     3     6   ar
     8     4     1   ar
     9     7     2    1
    10     7     8    1
    11     8     9    1
    12     9    10    1
    13    10    13    1
    14    11    13    1
    15    11     7    1
    16    12    13    1
    17    14     1    1
    18    17    22   ar
    19    18    19   ar
    20    20    21   ar
    21     1     5   ar
    22     2     3   ar
    23     4     6   ar
    24    14    15    1
@<TRIPOS>MOLECULE
Molport-046-951-073 MCULE-3394134079 MCULE-8905137122 PubChem-110089534
 22 24 0 0 0
SMALL
GASTEIGER

@<TRIPOS>ATOM
      1 C          10.2696   41.0042    5.5800 C.ar    1  UNL1        0.1522
      2 C           7.9646   40.9691    6.1503 C.ar    1  UNL1        0.0805
      3 C           7.9145   39.5997    5.8618 C.ar    1  UNL1        0.1137
      4 C          10.2113   39.6343    5.2933 C.ar    1  UNL1        0.1332
      5 N           9.1409   41.6343    6.0016 N.ar    1  UNL1       -0.2317
      6 N           9.0384   38.9645    5.4402 N.ar    1  UNL1       -0.2382
      7 C           6.7528   41.7105    6.6170 C.3     1  UNL1        0.0579
      8 C           6.9807   43.2251    6.5521 C.3     1  UNL1        0.0088
      9 C           5.9193   43.9701    7.3597 C.3     1  UNL1        0.0178
     10 C           5.7790   43.4189    8.7898 C.3     1  UNL1        0.0722
     11 C           6.3143   41.2367    8.0118 C.3     1  UNL1        0.0781
     12 C           6.2161   41.6880   10.3037 C.3     1  UNL1        0.0896
     13 N           6.6213   42.2432    9.0259 N.3     1  UNL1       -0.2712
     14 N          11.4801   41.7619    5.4429 N.pl3   1  UNL1       -0.2821
     15 H          11.5362   42.3567    4.6604 H       1  UNL1        0.1551
     16 C          15.8657   43.5496    6.7099 C.3     1  UNL1        0.0521
     17 C          14.7474   42.6016    6.9522 C.ar    1  UNL1        0.0608
     18 C          12.6175   41.7516    6.3160 C.ar    1  UNL1        0.1328
     19 C          12.6467   40.8454    7.3796 C.ar    1  UNL1        0.0344
     20 C          13.7490   40.8265    8.2360 C.ar    1  UNL1        0.0041
     21 C          14.8089   41.7093    8.0243 C.ar    1  UNL1        0.0148
     22 N          13.6643   42.6040    6.1294 N.ar    1  UNL1       -0.2349
@<TRIPOS>BOND
     1    16    17    1
     2    18    22   ar
     3    18    14    1
     4    19    20   ar
     5    21    17   ar
     6     2     5   ar
     7     3     6   ar
     8     4     1   ar
     9     7     2    1
    10     7     8    1
    11     8     9    1
    12     9    10    1
    13    10    13    1
    14    11    13    1
    15    11     7    1
    16    12    13    1
    17    14     1    1
    18    17    22   ar
    19    18    19   ar
    20    20    21   ar
    21     1     5   ar
    22     2     3   ar
    23     4     6   ar
    24    14    15    1
@<TRIPOS>MOLECULE
Molport-046-951-073 MCULE-3394134079 MCULE-8905137122 PubChem-110089534
 22 24 0 0 0
SMALL
GASTEIGER

@<TRIPOS>ATOM
      1 C          11.6789   40.4902    6.4743 C.ar    1  UNL1        0.1522
      2 C          13.4121   41.9188    7.2453 C.ar    1  UNL1        0.0805
      3 C          13.8083   40.9408    8.1658 C.ar    1  UNL1        0.1137
      4 C          12.0814   39.5168    7.3978 C.ar    1  UNL1        0.1332
      5 N          12.3580   41.6671    6.4245 N.ar    1  UNL1       -0.2317
      6 N          13.1342   39.7631    8.2206 N.ar    1  UNL1       -0.2382
      7 C          14.1240   43.2303    7.1491 C.3     1  UNL1        0.0579
      8 C          14.1713   43.7208    5.6975 C.3     1  UNL1        0.0088
      9 C          15.1965   44.8416    5.5349 C.3     1  UNL1        0.0178
     10 C          16.5719   44.4644    6.1133 C.3     1  UNL1        0.0722
     11 C          15.5168   43.1553    7.7946 C.3     1  UNL1        0.0781
     12 C          17.8302   43.0377    7.4772 C.3     1  UNL1        0.0896
     13 N          16.5653   43.1577    6.7766 N.3     1  UNL1       -0.2712
     14 N          10.5750   40.2851    5.5813 N.pl3   1  UNL1       -0.2821
     15 H          10.8002   39.9870    4.6705 H       1  UNL1        0.1551
     16 C           6.7682   43.2619    6.4071 C.3     1  UNL1        0.0521
     17 C           7.3164   41.8878    6.2681 C.ar    1  UNL1        0.0608
     18 C           9.1809   40.4648    5.8644 C.ar    1  UNL1        0.1328
     19 C           8.3670   39.3371    6.0034 C.ar    1  UNL1        0.0344
     20 C           7.0083   39.5002    6.2790 C.ar    1  UNL1        0.0041
     21 C           6.4752   40.7829    6.4130 C.ar    1  UNL1        0.0148
     22 N           8.6376   41.7074    5.9996 N.ar    1  UNL1       -0.2349
@<TRIPOS>BOND
     1    16    17    1
     2    18    22   ar
     3    18    14    1
     4    19    20   ar
     5    21    17   ar
     6     2     5   ar
     7     3     6   ar
     8     4     1   ar
     9     7     2    1
    10     7     8    1
    11     8     9    1
    12     9    10    1
    13    10    13    1
    14    11    13    1
    15    11     7    1
    16    12    13    1
    17    14     1    1
    18    17    22   ar
    19    18    19   ar
    20    20    21   ar
    21     1     5   ar
    22     2     3   ar
    23     4     6   ar
    24    14    15    1
@<TRIPOS>MOLECULE
Molport-046-951-073 MCULE-3394134079 MCULE-8905137122 PubChem-110089534
 22 24 0 0 0
SMALL
GASTEIGER

@<TRIPOS>ATOM
      1 C          12.4543   40.9715    8.4916 C.ar    1  UNL1        0.1522
      2 C          10.1254   41.2013    8.8949 C.ar    1  UNL1        0.0805
      3 C          10.3258   40.8677   10.2400 C.ar    1  UNL1        0.1137
      4 C          12.6466   40.6386    9.8386 C.ar    1  UNL1        0.1332
      5 N          11.1951   41.2442    8.0570 N.ar    1  UNL1       -0.2317
      6 N          11.5811   40.5943   10.6804 N.ar    1  UNL1       -0.2382
      7 C           8.7616   41.5099    8.3649 C.3     1  UNL1        0.0579
      8 C           8.6252   43.0027    8.0443 C.3     1  UNL1        0.0088
      9 C           7.1581   43.3887    7.8639 C.3     1  UNL1        0.0178
     10 C           6.2810   42.9179    9.0376 C.3     1  UNL1        0.0722
     11 C           7.6673   41.0067    9.3197 C.3     1  UNL1        0.0781
     12 C           6.0504   41.5459   10.9201 C.3     1  UNL1        0.0896
     13 N           7.0278   42.1215   10.0152 N.3     1  UNL1       -0.2712
     14 N          13.5417   41.0337    7.5578 N.pl3   1  UNL1       -0.2821
     15 H          13.8271   40.1781    7.1630 H       1  UNL1        0.1551
     16 C          17.5657   43.8284    7.7345 C.3     1  UNL1        0.0521
     17 C          16.2020   43.5742    7.2019 C.ar    1  UNL1        0.0608
     18 C          14.2602   42.2000    7.1342 C.ar    1  UNL1        0.1328
     19 C          13.6572   43.0741    6.2255 C.ar    1  UNL1        0.0344
     20 C          14.3474   44.2127    5.8061 C.ar    1  UNL1        0.0041
     21 C          15.6291   44.4682    6.2953 C.ar    1  UNL1        0.0148
     22 N          15.5128   42.4705    7.5980 N.ar    1  UNL1       -0.2349
@<TRIPOS>BOND
     1    16    17    1
     2    18    22   ar
     3    18    14    1
     4    19    20   ar
     5    21    17   ar
     6     2     5   ar
     7     3     6   ar
     8     4     1   ar
     9     7     2    1
    10     7     8    1
    11     8     9    1
    12     9    10    1
    13    10    13    1
    14    11    13    1
    15    11     7    1
    16    12    13    1
    17    14     1    1
    18    17    22   ar
    19    18    19   ar
    20    20    21   ar
    21     1     5   ar
    22     2     3   ar
    23     4     6   ar
    24    14    15    1
