@<TRIPOS>MOLECULE
MolPort-020-295-317 MCULE-6072814269 PubChem-110267399
 29 32 0 0 0
SMALL
GASTEIGER

@<TRIPOS>ATOM
      1 C           7.5449   41.1987   10.6897 C.ar    1  UNL1        0.2214
      2 C           8.8753   41.4382   12.6333 C.ar    1  UNL1        0.1031
      3 C          10.0309   41.2454   11.8800 C.ar    1  UNL1        0.0356
      4 C           9.9006   41.0271   10.5040 C.ar    1  UNL1        0.0647
      5 N           7.6594   41.4117   12.0292 N.ar    1  UNL1       -0.2120
      6 N           8.6636   41.0089    9.9413 N.ar    1  UNL1       -0.2179
      7 C          11.1006   40.8143    9.6375 C.3     1  UNL1        0.0603
      8 C          11.9983   39.7083   10.1986 C.3     1  UNL1        0.0094
      9 C          13.2068   39.4916    9.2902 C.3     1  UNL1        0.0219
     10 C          13.9906   40.7925    9.1470 C.3     1  UNL1        0.0934
     11 C          11.8869   42.1144    9.4596 C.3     1  UNL1        0.0992
     12 C          13.3753   42.5953    7.4899 C.2     1  UNL1        0.2256
     13 N          13.0960   41.8508    8.6849 N.am    1  UNL1       -0.2792
     14 O          12.5787   43.4915    7.1019 O.2     1  UNL1       -0.2749
     15 C          14.6204   42.3447    6.6996 C.3     1  UNL1        0.0853
     16 C          15.6202   43.4727    6.8967 C.3     1  UNL1        0.0091
     17 C          16.2350   43.8943    5.5721 C.3     1  UNL1        0.0005
     18 C          17.7362   43.9711    5.7860 C.3     1  UNL1        0.0000
     19 C          17.9721   43.7606    7.2664 C.3     1  UNL1        0.0000
     20 C          16.7661   42.9987    7.7606 C.3     1  UNL1        0.0005
     21 N           6.2635   41.1705   10.0499 N.pl3   1  UNL1       -0.2680
     22 H           6.2474   40.9180    9.0985 H       1  UNL1        0.1565
     23 C           1.2537   42.3583   12.4847 C.3     1  UNL1        0.0327
     24 C           2.5612   42.0403   11.8545 C.ar    1  UNL1       -0.0026
     25 C           3.1281   42.9151   10.9263 C.ar    1  UNL1        0.0960
     26 C           5.0030   41.4740   10.6596 C.ar    1  UNL1        0.1343
     27 C           4.4629   40.5766   11.5851 C.ar    1  UNL1        0.0342
     28 C           3.2352   40.8639   12.1843 C.ar    1  UNL1        0.0001
     29 N           4.3255   42.6167   10.3537 N.ar    1  UNL1       -0.2293
@<TRIPOS>BOND
     1    23    24    1
     2    25    29   ar
     3    26    27   ar
     4    26    21    1
     5    28    24   ar
     6     1     6   ar
     7     2     5   ar
     8     3     4   ar
     9     7     4    1
    10     7     8    1
    11     8     9    1
    12     9    10    1
    13    10    13    1
    14    11    13    1
    15    11     7    1
    16    15    12    1
    17    15    16    1
    18    16    17    1
    19    17    18    1
    20    18    19    1
    21    19    20    1
    22    20    16    1
    23    21     1    1
    24    13    12   am
    25    24    25   ar
    26    26    29   ar
    27    27    28   ar
    28     1     5   ar
    29     2     3   ar
    30     4     6   ar
    31    12    14    2
    32    21    22    1
@<TRIPOS>MOLECULE
MolPort-020-295-317 MCULE-6072814269 PubChem-110267399
 29 32 0 0 0
SMALL
GASTEIGER

@<TRIPOS>ATOM
      1 C          16.5434   39.9569   10.1933 C.ar    1  UNL1        0.2214
      2 C          16.2321   38.2184   11.7698 C.ar    1  UNL1        0.1031
      3 C          14.8620   38.2206   11.5189 C.ar    1  UNL1        0.0356
      4 C          14.3585   39.1255   10.5778 C.ar    1  UNL1        0.0647
      5 N          17.0446   39.0812   11.1070 N.ar    1  UNL1       -0.2120
      6 N          15.2085   39.9709    9.9377 N.ar    1  UNL1       -0.2179
      7 C          12.8981   39.1791   10.2605 C.3     1  UNL1        0.0603
      8 C          12.4397   37.9025    9.5503 C.3     1  UNL1        0.0094
      9 C          10.9431   37.9671    9.2530 C.3     1  UNL1        0.0219
     10 C          10.6342   39.1923    8.3983 C.3     1  UNL1        0.0934
     11 C          12.5628   40.4159    9.4251 C.3     1  UNL1        0.0992
     12 C          10.2927   41.4977    9.3694 C.2     1  UNL1        0.2256
     13 N          11.1496   40.3887    9.0594 N.am    1  UNL1       -0.2792
     14 O          10.7573   42.5116    9.9564 O.2     1  UNL1       -0.2749
     15 C           8.8478   41.4865    8.9825 C.3     1  UNL1        0.0853
     16 C           8.5580   42.5629    7.9490 C.3     1  UNL1        0.0091
     17 C           7.6784   43.6566    8.5325 C.3     1  UNL1        0.0005
     18 C           6.5652   43.9097    7.5315 C.3     1  UNL1        0.0000
     19 C           6.8949   43.0887    6.3031 C.3     1  UNL1        0.0000
     20 C           7.7833   41.9712    6.7941 C.3     1  UNL1        0.0005
     21 N          17.3984   40.8680    9.4924 N.pl3   1  UNL1       -0.2680
     22 H          18.3681   40.7534    9.6183 H       1  UNL1        0.1565
     23 C          15.7162   45.0777    6.0449 C.3     1  UNL1        0.0327
     24 C          16.1468   43.9749    6.9428 C.ar    1  UNL1       -0.0026
     25 C          17.3914   44.0235    7.5728 C.ar    1  UNL1        0.0960
     26 C          16.9799   41.9296    8.6262 C.ar    1  UNL1        0.1343
     27 C          15.7276   41.8499    8.0107 C.ar    1  UNL1        0.0342
     28 C          15.3113   42.8797    7.1649 C.ar    1  UNL1        0.0001
     29 N          17.7783   43.0098    8.3934 N.ar    1  UNL1       -0.2293
@<TRIPOS>BOND
     1    23    24    1
     2    25    29   ar
     3    26    27   ar
     4    26    21    1
     5    28    24   ar
     6     1     6   ar
     7     2     5   ar
     8     3     4   ar
     9     7     4    1
    10     7     8    1
    11     8     9    1
    12     9    10    1
    13    10    13    1
    14    11    13    1
    15    11     7    1
    16    15    12    1
    17    15    16    1
    18    16    17    1
    19    17    18    1
    20    18    19    1
    21    19    20    1
    22    20    16    1
    23    21     1    1
    24    13    12   am
    25    24    25   ar
    26    26    29   ar
    27    27    28   ar
    28     1     5   ar
    29     2     3   ar
    30     4     6   ar
    31    12    14    2
    32    21    22    1
@<TRIPOS>MOLECULE
MolPort-020-295-317 MCULE-6072814269 PubChem-110267399
 29 32 0 0 0
SMALL
GASTEIGER

@<TRIPOS>ATOM
      1 C           8.5463   39.6215    5.4024 C.ar    1  UNL1        0.2214
      2 C          10.0011   38.5862    3.8479 C.ar    1  UNL1        0.1031
      3 C          11.0972   39.2051    4.4441 C.ar    1  UNL1        0.0356
      4 C          10.8734   40.0439    5.5415 C.ar    1  UNL1        0.0647
      5 N           8.7519   38.8036    4.3340 N.ar    1  UNL1       -0.2120
      6 N           9.6062   40.2325    5.9949 N.ar    1  UNL1       -0.2179
      7 C          12.0060   40.7379    6.2285 C.3     1  UNL1        0.0603
      8 C          11.8889   40.6135    7.7499 C.3     1  UNL1        0.0094
      9 C          13.0640   41.3101    8.4328 C.3     1  UNL1        0.0219
     10 C          13.1105   42.7781    8.0203 C.3     1  UNL1        0.0934
     11 C          12.0862   42.2064    5.8079 C.3     1  UNL1        0.0992
     12 C          14.1958   43.5741    5.8841 C.2     1  UNL1        0.2256
     13 N          13.1434   42.8727    6.5629 N.am    1  UNL1       -0.2792
     14 O          14.2119   43.6265    4.6250 O.2     1  UNL1       -0.2749
     15 C          15.2730   44.2750    6.6496 C.3     1  UNL1        0.0853
     16 C          16.5069   43.3955    6.7719 C.3     1  UNL1        0.0091
     17 C          16.3021   42.3104    7.8164 C.3     1  UNL1        0.0005
     18 C          17.5353   42.3109    8.7020 C.3     1  UNL1        0.0000
     19 C          18.5189   43.2732    8.0712 C.3     1  UNL1        0.0000
     20 C          17.6809   44.2204    7.2467 C.3     1  UNL1        0.0005
     21 N           7.2296   39.8523    5.9174 N.pl3   1  UNL1       -0.2680
     22 H           6.5837   39.1141    5.8327 H       1  UNL1        0.1565
     23 C           5.3604   44.6121    8.4249 C.3     1  UNL1        0.0327
     24 C           5.8454   43.3652    7.7784 C.ar    1  UNL1       -0.0026
     25 C           6.4131   43.4064    6.5039 C.ar    1  UNL1        0.0960
     26 C           6.7610   41.0525    6.5438 C.ar    1  UNL1        0.1343
     27 C           6.1975   40.9766    7.8207 C.ar    1  UNL1        0.0342
     28 C           5.7381   42.1409    8.4389 C.ar    1  UNL1        0.0001
     29 N           6.8547   42.2604    5.9188 N.ar    1  UNL1       -0.2293
@<TRIPOS>BOND
     1    23    24    1
     2    25    29   ar
     3    26    27   ar
     4    26    21    1
     5    28    24   ar
     6     1     6   ar
     7     2     5   ar
     8     3     4   ar
     9     7     4    1
    10     7     8    1
    11     8     9    1
    12     9    10    1
    13    10    13    1
    14    11    13    1
    15    11     7    1
    16    15    12    1
    17    15    16    1
    18    16    17    1
    19    17    18    1
    20    18    19    1
    21    19    20    1
    22    20    16    1
    23    21     1    1
    24    13    12   am
    25    24    25   ar
    26    26    29   ar
    27    27    28   ar
    28     1     5   ar
    29     2     3   ar
    30     4     6   ar
    31    12    14    2
    32    21    22    1
@<TRIPOS>MOLECULE
MolPort-020-295-317 MCULE-6072814269 PubChem-110267399
 29 32 0 0 0
SMALL
GASTEIGER

@<TRIPOS>ATOM
      1 C          16.6027   39.9392   10.1886 C.ar    1  UNL1        0.2214
      2 C          16.3061   38.2043   11.7719 C.ar    1  UNL1        0.1031
      3 C          14.9469   38.1481   11.4729 C.ar    1  UNL1        0.0356
      4 C          14.4409   39.0228   10.5049 C.ar    1  UNL1        0.0647
      5 N          17.1060   39.0934   11.1288 N.ar    1  UNL1       -0.2120
      6 N          15.2782   39.8962    9.8861 N.ar    1  UNL1       -0.2179
      7 C          12.9918   39.0136   10.1358 C.3     1  UNL1        0.0603
      8 C          12.4562   37.5829   10.0354 C.3     1  UNL1        0.0094
      9 C          10.9714   37.5943    9.6779 C.3     1  UNL1        0.0219
     10 C          10.7581   38.3366    8.3623 C.3     1  UNL1        0.0934
     11 C          12.7526   39.7762    8.8315 C.3     1  UNL1        0.0992
     12 C          10.5629   40.8495    8.2154 C.2     1  UNL1        0.2256
     13 N          11.3456   39.6707    8.4561 N.am    1  UNL1       -0.2792
     14 O          11.0882   41.9903    8.3200 O.2     1  UNL1       -0.2749
     15 C           9.1256   40.7509    7.8127 C.3     1  UNL1        0.0853
     16 C           8.9882   40.7580    6.2988 C.3     1  UNL1        0.0091
     17 C           8.4657   39.4236    5.7922 C.3     1  UNL1        0.0005
     18 C           9.3557   39.0117    4.6330 C.3     1  UNL1        0.0000
     19 C          10.2801   40.1796    4.3629 C.3     1  UNL1        0.0000
     20 C          10.3448   40.9485    5.6605 C.3     1  UNL1        0.0005
     21 N          17.4444   40.8779    9.5085 N.pl3   1  UNL1       -0.2680
     22 H          18.4146   40.7878    9.6494 H       1  UNL1        0.1565
     23 C          15.7071   45.0687    6.0653 C.3     1  UNL1        0.0327
     24 C          16.1522   43.9706    6.9621 C.ar    1  UNL1       -0.0026
     25 C          17.3942   44.0370    7.5955 C.ar    1  UNL1        0.0960
     26 C          17.0121   41.9348    8.6434 C.ar    1  UNL1        0.1343
     27 C          15.7627   41.8373    8.0244 C.ar    1  UNL1        0.0342
     28 C          15.3329   42.8623    7.1796 C.ar    1  UNL1        0.0001
     29 N          17.7944   43.0275    8.4149 N.ar    1  UNL1       -0.2293
@<TRIPOS>BOND
     1    23    24    1
     2    25    29   ar
     3    26    27   ar
     4    26    21    1
     5    28    24   ar
     6     1     6   ar
     7     2     5   ar
     8     3     4   ar
     9     7     4    1
    10     7     8    1
    11     8     9    1
    12     9    10    1
    13    10    13    1
    14    11    13    1
    15    11     7    1
    16    15    12    1
    17    15    16    1
    18    16    17    1
    19    17    18    1
    20    18    19    1
    21    19    20    1
    22    20    16    1
    23    21     1    1
    24    13    12   am
    25    24    25   ar
    26    26    29   ar
    27    27    28   ar
    28     1     5   ar
    29     2     3   ar
    30     4     6   ar
    31    12    14    2
    32    21    22    1
@<TRIPOS>MOLECULE
MolPort-020-295-317 MCULE-6072814269 PubChem-110267399
 29 32 0 0 0
SMALL
GASTEIGER

@<TRIPOS>ATOM
      1 C          15.5789   42.4674    7.4748 C.ar    1  UNL1        0.2214
      2 C          14.7245   43.7589    5.6840 C.ar    1  UNL1        0.1031
      3 C          13.4219   43.5001    6.1037 C.ar    1  UNL1        0.0356
      4 C          13.2334   42.7030    7.2382 C.ar    1  UNL1        0.0647
      5 N          15.7745   43.2413    6.3722 N.ar    1  UNL1       -0.2120
      6 N          14.3135   42.2062    7.8966 N.ar    1  UNL1       -0.2179
      7 C          11.8614   42.3878    7.7429 C.3     1  UNL1        0.0603
      8 C          11.9081   41.8676    9.1821 C.3     1  UNL1        0.0094
      9 C          10.4975   41.5708    9.6866 C.3     1  UNL1        0.0219
     10 C           9.8212   40.5526    8.7738 C.3     1  UNL1        0.0934
     11 C          11.1556   41.3873    6.8261 C.3     1  UNL1        0.0992
     12 C           8.6561   41.1891    6.6262 C.2     1  UNL1        0.2256
     13 N           9.8581   41.0354    7.3956 N.am    1  UNL1       -0.2792
     14 O           8.7122   41.6245    5.4449 O.2     1  UNL1       -0.2749
     15 C           7.3243   40.8142    7.1949 C.3     1  UNL1        0.0853
     16 C           6.9324   41.7600    8.3186 C.3     1  UNL1        0.0091
     17 C           5.6234   41.3309    8.9611 C.3     1  UNL1        0.0005
     18 C           4.7539   42.5714    9.0639 C.3     1  UNL1        0.0000
     19 C           5.6178   43.7399    8.6399 C.3     1  UNL1        0.0000
     20 C           6.6946   43.1458    7.7643 C.3     1  UNL1        0.0005
     21 N          16.6848   41.9205    8.2029 N.pl3   1  UNL1       -0.2680
     22 H          17.5592   42.3543    8.0746 H       1  UNL1        0.1565
     23 C          16.4943   37.4818   11.7664 C.3     1  UNL1        0.0327
     24 C          16.5344   38.6400   10.8364 C.ar    1  UNL1       -0.0026
     25 C          17.7575   39.1713   10.4241 C.ar    1  UNL1        0.0960
     26 C          16.6424   40.8038    9.0993 C.ar    1  UNL1        0.1343
     27 C          15.4011   40.2958    9.4928 C.ar    1  UNL1        0.0342
     28 C          15.3499   39.2079   10.3662 C.ar    1  UNL1        0.0001
     29 N          17.7858   40.2319    9.5725 N.ar    1  UNL1       -0.2293
@<TRIPOS>BOND
     1    23    24    1
     2    25    29   ar
     3    26    27   ar
     4    26    21    1
     5    28    24   ar
     6     1     6   ar
     7     2     5   ar
     8     3     4   ar
     9     7     4    1
    10     7     8    1
    11     8     9    1
    12     9    10    1
    13    10    13    1
    14    11    13    1
    15    11     7    1
    16    15    12    1
    17    15    16    1
    18    16    17    1
    19    17    18    1
    20    18    19    1
    21    19    20    1
    22    20    16    1
    23    21     1    1
    24    13    12   am
    25    24    25   ar
    26    26    29   ar
    27    27    28   ar
    28     1     5   ar
    29     2     3   ar
    30     4     6   ar
    31    12    14    2
    32    21    22    1
@<TRIPOS>MOLECULE
MolPort-020-295-317 MCULE-6072814269 PubChem-110267399
 29 32 0 0 0
SMALL
GASTEIGER

@<TRIPOS>ATOM
      1 C          11.3671   37.6976    9.5394 C.ar    1  UNL1        0.2214
      2 C          12.3100   36.0009   10.8947 C.ar    1  UNL1        0.1031
      3 C          13.5812   36.5359   10.7000 C.ar    1  UNL1        0.0356
      4 C          13.7084   37.6774    9.9008 C.ar    1  UNL1        0.0647
      5 N          11.2311   36.5871   10.3146 N.ar    1  UNL1       -0.2120
      6 N          12.6012   38.2312    9.3402 N.ar    1  UNL1       -0.2179
      7 C          15.0439   38.3029    9.6524 C.3     1  UNL1        0.0603
      8 C          16.1077   37.7247   10.5894 C.3     1  UNL1        0.0094
      9 C          17.4675   38.3602   10.3073 C.3     1  UNL1        0.0219
     10 C          17.3790   39.8742   10.4716 C.3     1  UNL1        0.0934
     11 C          14.9708   39.8249    9.7867 C.3     1  UNL1        0.0992
     12 C          16.5547   41.4114    8.6461 C.2     1  UNL1        0.2256
     13 N          16.3062   40.3931    9.6267 N.am    1  UNL1       -0.2792
     14 O          15.6161   41.8301    7.9167 O.2     1  UNL1       -0.2749
     15 C          17.9154   42.0122    8.4874 C.3     1  UNL1        0.0853
     16 C          17.8337   43.3497    7.7696 C.3     1  UNL1        0.0091
     17 C          16.5038   44.0340    8.0407 C.3     1  UNL1        0.0005
     18 C          15.9649   44.4999    6.6998 C.3     1  UNL1        0.0000
     19 C          17.0546   44.2373    5.6824 C.3     1  UNL1        0.0000
     20 C          17.8998   43.1357    6.2749 C.3     1  UNL1        0.0005
     21 N          10.2306   38.3182    8.9266 N.pl3   1  UNL1       -0.2680
     22 H           9.4838   38.5622    9.5200 H       1  UNL1        0.1565
     23 C           9.6283   39.5246    3.3931 C.3     1  UNL1        0.0327
     24 C           9.7931   39.2154    4.8371 C.ar    1  UNL1       -0.0026
     25 C           8.9016   38.3556    5.4806 C.ar    1  UNL1        0.0960
     26 C          10.0747   38.6183    7.5344 C.ar    1  UNL1        0.1343
     27 C          10.9848   39.4834    6.9203 C.ar    1  UNL1        0.0342
     28 C          10.8408   39.7818    5.5641 C.ar    1  UNL1        0.0001
     29 N           9.0593   38.0777    6.8029 N.ar    1  UNL1       -0.2293
@<TRIPOS>BOND
     1    23    24    1
     2    25    29   ar
     3    26    27   ar
     4    26    21    1
     5    28    24   ar
     6     1     6   ar
     7     2     5   ar
     8     3     4   ar
     9     7     4    1
    10     7     8    1
    11     8     9    1
    12     9    10    1
    13    10    13    1
    14    11    13    1
    15    11     7    1
    16    15    12    1
    17    15    16    1
    18    16    17    1
    19    17    18    1
    20    18    19    1
    21    19    20    1
    22    20    16    1
    23    21     1    1
    24    13    12   am
    25    24    25   ar
    26    26    29   ar
    27    27    28   ar
    28     1     5   ar
    29     2     3   ar
    30     4     6   ar
    31    12    14    2
    32    21    22    1
@<TRIPOS>MOLECULE
MolPort-020-295-317 MCULE-6072814269 PubChem-110267399
 29 32 0 0 0
SMALL
GASTEIGER

@<TRIPOS>ATOM
      1 C           8.0696   40.8857    7.9869 C.ar    1  UNL1        0.2214
      2 C           8.4033   38.9278    6.6985 C.ar    1  UNL1        0.1031
      3 C           9.5742   38.6516    7.4005 C.ar    1  UNL1        0.0356
      4 C           9.9694   39.5352    8.4109 C.ar    1  UNL1        0.0647
      5 N           7.6754   40.0334    7.0016 N.ar    1  UNL1       -0.2120
      6 N           9.2099   40.6294    8.6808 N.ar    1  UNL1       -0.2179
      7 C          11.2149   39.2968    9.2035 C.3     1  UNL1        0.0603
      8 C          11.4941   40.4612   10.1576 C.3     1  UNL1        0.0094
      9 C          12.7574   40.1906   10.9721 C.3     1  UNL1        0.0219
     10 C          13.9429   39.9717   10.0374 C.3     1  UNL1        0.0934
     11 C          12.4119   39.0488    8.2839 C.3     1  UNL1        0.0992
     12 C          14.4544   37.7461    8.9604 C.2     1  UNL1        0.2256
     13 N          13.6231   38.9094    9.0871 N.am    1  UNL1       -0.2792
     14 O          14.1476   36.8346    8.1459 O.2     1  UNL1       -0.2749
     15 C          15.7067   37.6029    9.7659 C.3     1  UNL1        0.0853
     16 C          16.4501   36.3326    9.3856 C.3     1  UNL1        0.0091
     17 C          17.8898   36.3771    9.8708 C.3     1  UNL1        0.0005
     18 C          18.7632   35.9551    8.7027 C.3     1  UNL1        0.0000
     19 C          17.8249   35.5070    7.6025 C.3     1  UNL1        0.0000
     20 C          16.5168   36.2072    7.8809 C.3     1  UNL1        0.0005
     21 N           7.3033   42.0525    8.3089 N.pl3   1  UNL1       -0.2680
     22 H           7.6129   42.9062    7.9287 H       1  UNL1        0.1565
     23 C           2.6501   42.2211   11.5886 C.3     1  UNL1        0.0327
     24 C           3.8685   42.1716   10.7394 C.ar    1  UNL1       -0.0026
     25 C           3.9054   42.8477    9.5189 C.ar    1  UNL1        0.0960
     26 C           6.1303   42.0982    9.1302 C.ar    1  UNL1        0.1343
     27 C           6.1261   41.4099   10.3468 C.ar    1  UNL1        0.0342
     28 C           4.9876   41.4486   11.1538 C.ar    1  UNL1        0.0001
     29 N           5.0246   42.7974    8.7472 N.ar    1  UNL1       -0.2293
@<TRIPOS>BOND
     1    23    24    1
     2    25    29   ar
     3    26    27   ar
     4    26    21    1
     5    28    24   ar
     6     1     6   ar
     7     2     5   ar
     8     3     4   ar
     9     7     4    1
    10     7     8    1
    11     8     9    1
    12     9    10    1
    13    10    13    1
    14    11    13    1
    15    11     7    1
    16    15    12    1
    17    15    16    1
    18    16    17    1
    19    17    18    1
    20    18    19    1
    21    19    20    1
    22    20    16    1
    23    21     1    1
    24    13    12   am
    25    24    25   ar
    26    26    29   ar
    27    27    28   ar
    28     1     5   ar
    29     2     3   ar
    30     4     6   ar
    31    12    14    2
    32    21    22    1
@<TRIPOS>MOLECULE
MolPort-020-295-317 MCULE-6072814269 PubChem-110267399
 29 32 0 0 0
SMALL
GASTEIGER

@<TRIPOS>ATOM
      1 C          11.5677   37.7210    9.7284 C.ar    1  UNL1        0.2214
      2 C          12.6328   35.7274   10.4325 C.ar    1  UNL1        0.1031
      3 C          13.8818   36.3077   10.2245 C.ar    1  UNL1        0.0356
      4 C          13.9347   37.6256    9.7573 C.ar    1  UNL1        0.0647
      5 N          11.5038   36.4394   10.1824 N.ar    1  UNL1       -0.2120
      6 N          12.7793   38.3008    9.5206 N.ar    1  UNL1       -0.2179
      7 C          15.2429   38.3082    9.5143 C.3     1  UNL1        0.0603
      8 C          16.3383   37.7427   10.4222 C.3     1  UNL1        0.0094
      9 C          17.6700   38.4374   10.1455 C.3     1  UNL1        0.0219
     10 C          17.5267   39.9414   10.3569 C.3     1  UNL1        0.0934
     11 C          15.1144   39.8217    9.6957 C.3     1  UNL1        0.0992
     12 C          16.6246   41.5005    8.5878 C.2     1  UNL1        0.2256
     13 N          16.4256   40.4445    9.5393 N.am    1  UNL1       -0.2792
     14 O          15.6626   41.9052    7.8811 O.2     1  UNL1       -0.2749
     15 C          17.9599   42.1568    8.4333 C.3     1  UNL1        0.0853
     16 C          17.8268   43.4853    7.7067 C.3     1  UNL1        0.0091
     17 C          16.4607   44.1057    7.9500 C.3     1  UNL1        0.0005
     18 C          15.9244   44.5386    6.5971 C.3     1  UNL1        0.0000
     19 C          17.0439   44.3243    5.6008 C.3     1  UNL1        0.0000
     20 C          17.9304   43.2677    6.2147 C.3     1  UNL1        0.0005
     21 N          10.3782   38.4744    9.4640 N.pl3   1  UNL1       -0.2680
     22 H           9.5958   37.9709    9.1423 H       1  UNL1        0.1565
     23 C           9.7414   44.0966   10.1138 C.3     1  UNL1        0.0327
     24 C           9.9107   42.6291    9.9533 C.ar    1  UNL1       -0.0026
     25 C           9.6023   42.0122    8.7398 C.ar    1  UNL1        0.0960
     26 C          10.2163   39.8891    9.6223 C.ar    1  UNL1        0.1343
     27 C          10.5341   40.4756   10.8505 C.ar    1  UNL1        0.0342
     28 C          10.3795   41.8534   11.0141 C.ar    1  UNL1        0.0001
     29 N           9.7600   40.6681    8.6009 N.ar    1  UNL1       -0.2293
@<TRIPOS>BOND
     1    23    24    1
     2    25    29   ar
     3    26    27   ar
     4    26    21    1
     5    28    24   ar
     6     1     6   ar
     7     2     5   ar
     8     3     4   ar
     9     7     4    1
    10     7     8    1
    11     8     9    1
    12     9    10    1
    13    10    13    1
    14    11    13    1
    15    11     7    1
    16    15    12    1
    17    15    16    1
    18    16    17    1
    19    17    18    1
    20    18    19    1
    21    19    20    1
    22    20    16    1
    23    21     1    1
    24    13    12   am
    25    24    25   ar
    26    26    29   ar
    27    27    28   ar
    28     1     5   ar
    29     2     3   ar
    30     4     6   ar
    31    12    14    2
    32    21    22    1
@<TRIPOS>MOLECULE
MolPort-020-295-317 MCULE-6072814269 PubChem-110267399
 29 32 0 0 0
SMALL
GASTEIGER

@<TRIPOS>ATOM
      1 C          15.1487   40.0361    9.9057 C.ar    1  UNL1        0.2214
      2 C          14.4886   38.6163   11.6814 C.ar    1  UNL1        0.1031
      3 C          13.1502   38.7873   11.3358 C.ar    1  UNL1        0.0356
      4 C          12.8433   39.6085   10.2453 C.ar    1  UNL1        0.0647
      5 N          15.4592   39.2398   10.9650 N.ar    1  UNL1       -0.2120
      6 N          13.8470   40.2127    9.5564 N.ar    1  UNL1       -0.2179
      7 C          11.4272   39.8335    9.8206 C.3     1  UNL1        0.0603
      8 C          11.1452   39.1764    8.4669 C.3     1  UNL1        0.0094
      9 C           9.6902   39.3993    8.0599 C.3     1  UNL1        0.0219
     10 C           9.3892   40.8936    7.9997 C.3     1  UNL1        0.0934
     11 C          11.0970   41.3265    9.7792 C.3     1  UNL1        0.0992
     12 C           8.7741   42.2571   10.0337 C.2     1  UNL1        0.2256
     13 N           9.7389   41.5117    9.2762 N.am    1  UNL1       -0.2792
     14 O           9.0951   42.7659   11.1411 O.2     1  UNL1       -0.2749
     15 C           7.3858   42.4674    9.5180 C.3     1  UNL1        0.0853
     16 C           6.4938   41.2894    9.8752 C.3     1  UNL1        0.0091
     17 C           5.3016   41.2035    8.9363 C.3     1  UNL1        0.0005
     18 C           4.0690   41.0162    9.8029 C.3     1  UNL1        0.0000
     19 C           4.5637   40.8253   11.2207 C.3     1  UNL1        0.0000
     20 C           5.9242   41.4782   11.2623 C.3     1  UNL1        0.0005
     21 N          16.1707   40.6948    9.1481 N.pl3   1  UNL1       -0.2680
     22 H          17.0783   40.3176    9.2045 H       1  UNL1        0.1565
     23 C          15.4766   45.2738    5.8333 C.3     1  UNL1        0.0327
     24 C          15.6495   44.0755    6.6947 C.ar    1  UNL1       -0.0026
     25 C          16.7571   43.9663    7.5371 C.ar    1  UNL1        0.0960
     26 C          16.0007   41.8488    8.3162 C.ar    1  UNL1        0.1343
     27 C          14.8805   41.9268    7.4840 C.ar    1  UNL1        0.0342
     28 C          14.7065   43.0475    6.6699 C.ar    1  UNL1        0.0001
     29 N          16.9082   42.8660    8.3226 N.ar    1  UNL1       -0.2293
@<TRIPOS>BOND
     1    23    24    1
     2    25    29   ar
     3    26    27   ar
     4    26    21    1
     5    28    24   ar
     6     1     6   ar
     7     2     5   ar
     8     3     4   ar
     9     7     4    1
    10     7     8    1
    11     8     9    1
    12     9    10    1
    13    10    13    1
    14    11    13    1
    15    11     7    1
    16    15    12    1
    17    15    16    1
    18    16    17    1
    19    17    18    1
    20    18    19    1
    21    19    20    1
    22    20    16    1
    23    21     1    1
    24    13    12   am
    25    24    25   ar
    26    26    29   ar
    27    27    28   ar
    28     1     5   ar
    29     2     3   ar
    30     4     6   ar
    31    12    14    2
    32    21    22    1
@<TRIPOS>MOLECULE
MolPort-020-295-317 MCULE-6072814269 PubChem-110267399
 29 32 0 0 0
SMALL
GASTEIGER

@<TRIPOS>ATOM
      1 C           7.3300   41.3286   10.9956 C.ar    1  UNL1        0.2214
      2 C           8.6011   41.3254   12.9928 C.ar    1  UNL1        0.1031
      3 C           9.7774   41.4527   12.2579 C.ar    1  UNL1        0.0356
      4 C           9.6880   41.5160   10.8629 C.ar    1  UNL1        0.0647
      5 N           7.4047   41.2658   12.3532 N.ar    1  UNL1       -0.2120
      6 N           8.4693   41.4530   10.2648 N.ar    1  UNL1       -0.2179
      7 C          10.9119   41.6540   10.0147 C.3     1  UNL1        0.0603
      8 C          10.5473   42.0255    8.5749 C.3     1  UNL1        0.0094
      9 C          11.8097   42.1819    7.7298 C.3     1  UNL1        0.0219
     10 C          12.6188   40.8889    7.7577 C.3     1  UNL1        0.0934
     11 C          11.7514   40.3758   10.0502 C.3     1  UNL1        0.0992
     12 C          14.2280   40.3117    9.6156 C.2     1  UNL1        0.2256
     13 N          12.8876   40.5135    9.1437 N.am    1  UNL1       -0.2792
     14 O          14.4354   40.0058   10.8205 O.2     1  UNL1       -0.2749
     15 C          15.3970   40.4329    8.6902 C.3     1  UNL1        0.0853
     16 C          15.9520   41.8480    8.7052 C.3     1  UNL1        0.0091
     17 C          15.5757   42.5950    7.4360 C.3     1  UNL1        0.0005
     18 C          16.8417   43.2555    6.9200 C.3     1  UNL1        0.0000
     19 C          17.9050   43.0323    7.9741 C.3     1  UNL1        0.0000
     20 C          17.4625   41.8072    8.7373 C.3     1  UNL1        0.0005
     21 N           6.0691   41.2663   10.3184 N.pl3   1  UNL1       -0.2680
     22 H           5.5816   40.4122   10.3648 H       1  UNL1        0.1565
     23 C           3.6209   45.4838    7.3763 C.3     1  UNL1        0.0327
     24 C           4.2682   44.3861    8.1404 C.ar    1  UNL1       -0.0026
     25 C           3.5012   43.5320    8.9345 C.ar    1  UNL1        0.0960
     26 C           5.4483   42.3257    9.5802 C.ar    1  UNL1        0.1343
     27 C           6.2451   43.1633    8.7946 C.ar    1  UNL1        0.0342
     28 C           5.6490   44.1983    8.0718 C.ar    1  UNL1        0.0001
     29 N           4.1014   42.5294    9.6311 N.ar    1  UNL1       -0.2293
@<TRIPOS>BOND
     1    23    24    1
     2    25    29   ar
     3    26    27   ar
     4    26    21    1
     5    28    24   ar
     6     1     6   ar
     7     2     5   ar
     8     3     4   ar
     9     7     4    1
    10     7     8    1
    11     8     9    1
    12     9    10    1
    13    10    13    1
    14    11    13    1
    15    11     7    1
    16    15    12    1
    17    15    16    1
    18    16    17    1
    19    17    18    1
    20    18    19    1
    21    19    20    1
    22    20    16    1
    23    21     1    1
    24    13    12   am
    25    24    25   ar
    26    26    29   ar
    27    27    28   ar
    28     1     5   ar
    29     2     3   ar
    30     4     6   ar
    31    12    14    2
    32    21    22    1
