@<TRIPOS>MOLECULE
MolPort-039-210-488 CSSS03437013823 MCULE-4377879429 PubChem-121017036
 26 28 0 0 0
SMALL
GASTEIGER

@<TRIPOS>ATOM
      1 N          12.1894   41.4285    5.8312 N.pl3   1  UNL1       -0.2154
      2 H          12.8313   41.5600    5.0965 H       1  UNL1        0.1735
      3 C          10.8974   40.9019    5.5283 C.ar    1  UNL1        0.1040
      4 C           9.8413   40.8367    6.4073 C.ar    1  UNL1        0.1125
      5 C          10.4834   40.3688    4.3221 C.ar    1  UNL1        0.1374
      6 N           8.8313   40.2779    5.7180 N.ar    1  UNL1       -0.2456
      7 N           9.1993   39.9916    4.4787 N.ar    1  UNL1       -0.1662
      8 C           7.5113   39.9902    6.2561 C.3     1  UNL1        0.1569
      9 C           6.8241   41.2734    6.6961 C.3     1  UNL1        0.1395
     10 C           6.9669   41.4662    8.2165 C.3     1  UNL1        0.0317
     11 C           7.3235   42.9118    8.5722 C.3     1  UNL1        0.0051
     12 C           6.5653   43.9116    7.6953 C.3     1  UNL1        0.0322
     13 C           6.4995   43.4486    6.2307 C.3     1  UNL1        0.1421
     14 O           7.3646   42.3646    5.9921 O.3     1  UNL1       -0.3542
     15 S          12.6701   41.8446    7.4411 S.O2    1  UNL1        0.0584
     16 O          11.6477   41.3381    8.4193 O.2     1  UNL1       -0.1541
     17 O          12.7952   43.3377    7.5599 O.2     1  UNL1       -0.1541
     18 C          14.2480   41.0867    7.7820 C.3     1  UNL1        0.2010
     19 F          16.1477   45.2240    6.0183 F       1  UNL1       -0.2042
     20 F          16.5715   40.9295    9.4436 F       1  UNL1       -0.2044
     21 C          16.2488   44.1661    6.8578 C.ar    1  UNL1        0.1400
     22 C          15.2410   43.1979    6.8861 C.ar    1  UNL1        0.0294
     23 C          15.3419   42.1021    7.7509 C.ar    1  UNL1        0.0329
     24 C          16.4570   41.9818    8.5954 C.ar    1  UNL1        0.1380
     25 C          17.4632   42.9525    8.5649 C.ar    1  UNL1        0.0317
     26 C          17.3595   44.0434    7.6971 C.ar    1  UNL1        0.0319
@<TRIPOS>BOND
     1    21    19    1
     2    22    23   ar
     3    18    23    1
     4    18    15    1
     5     4     6   ar
     6     8     6    1
     7     9     8    1
     8     9    10    1
     9     9    14    1
    10    10    11    1
    11    11    12    1
    12    12    13    1
    13    13    14    1
    14     5     3   ar
    15    24    20    1
    16    24    25   ar
    17    26    21   ar
    18    15     1    1
    19     1     3    1
    20     6     7   ar
    21    21    22   ar
    22    23    24   ar
    23     3     4   ar
    24     5     7   ar
    25    25    26   ar
    26    15    16    2
    27    15    17    2
    28     1     2    1
@<TRIPOS>MOLECULE
MolPort-039-210-488 CSSS03437013823 MCULE-4377879429 PubChem-121017036
 26 28 0 0 0
SMALL
GASTEIGER

@<TRIPOS>ATOM
      1 N          11.5198   41.3396    5.2042 N.pl3   1  UNL1       -0.2154
      2 H          11.9393   41.4425    4.3195 H       1  UNL1        0.1735
      3 C          10.1973   40.8069    5.2792 C.ar    1  UNL1        0.1040
      4 C           9.2069   41.2583    6.1203 C.ar    1  UNL1        0.1125
      5 C           9.6843   39.7590    4.5380 C.ar    1  UNL1        0.1374
      6 N           8.1366   40.4854    5.8660 N.ar    1  UNL1       -0.2456
      7 N           8.4066   39.5880    4.9305 N.ar    1  UNL1       -0.1662
      8 C           6.8530   40.5874    6.5417 C.3     1  UNL1        0.1569
      9 C           6.8086   41.8306    7.4163 C.3     1  UNL1        0.1395
     10 C           6.7785   43.0998    6.5461 C.3     1  UNL1        0.0317
     11 C           5.7609   44.1182    7.0667 C.3     1  UNL1        0.0051
     12 C           5.7599   44.1829    8.5961 C.3     1  UNL1        0.0322
     13 C           5.8751   42.7847    9.2250 C.3     1  UNL1        0.1421
     14 O           5.6902   41.7705    8.2670 O.3     1  UNL1       -0.3542
     15 S          12.4137   41.8112    6.6093 S.O2    1  UNL1        0.0584
     16 O          13.0757   40.6049    7.2139 O.2     1  UNL1       -0.1541
     17 O          11.4851   42.4397    7.6100 O.2     1  UNL1       -0.1541
     18 C          13.6574   42.9947    6.1268 C.3     1  UNL1        0.2010
     19 F          16.3255   40.5210    9.3822 F       1  UNL1       -0.2042
     20 F          15.6875   45.0068    6.2477 F       1  UNL1       -0.2044
     21 C          16.1642   41.6227    8.6113 C.ar    1  UNL1        0.1400
     22 C          15.0333   41.7477    7.7994 C.ar    1  UNL1        0.0294
     23 C          14.8617   42.8852    7.0022 C.ar    1  UNL1        0.0329
     24 C          15.8333   43.8985    7.0161 C.ar    1  UNL1        0.1380
     25 C          16.9637   43.7700    7.8292 C.ar    1  UNL1        0.0317
     26 C          17.1292   42.6336    8.6262 C.ar    1  UNL1        0.0319
@<TRIPOS>BOND
     1    21    19    1
     2    22    23   ar
     3    18    23    1
     4    18    15    1
     5     4     6   ar
     6     8     6    1
     7     9     8    1
     8     9    10    1
     9     9    14    1
    10    10    11    1
    11    11    12    1
    12    12    13    1
    13    13    14    1
    14     5     3   ar
    15    24    20    1
    16    24    25   ar
    17    26    21   ar
    18    15     1    1
    19     1     3    1
    20     6     7   ar
    21    21    22   ar
    22    23    24   ar
    23     3     4   ar
    24     5     7   ar
    25    25    26   ar
    26    15    16    2
    27    15    17    2
    28     1     2    1
@<TRIPOS>MOLECULE
MolPort-039-210-488 CSSS03437013823 MCULE-4377879429 PubChem-121017036
 26 28 0 0 0
SMALL
GASTEIGER

@<TRIPOS>ATOM
      1 N           9.0831   41.6364    5.7023 N.pl3   1  UNL1       -0.2154
      2 H           9.2124   41.6941    4.7280 H       1  UNL1        0.1735
      3 C          10.2327   41.6413    6.5490 C.ar    1  UNL1        0.1040
      4 C          11.5331   41.5040    6.1218 C.ar    1  UNL1        0.1125
      5 C          10.2465   41.7779    7.9244 C.ar    1  UNL1        0.1374
      6 N          12.2869   41.5642    7.2334 N.ar    1  UNL1       -0.2456
      7 N          11.5358   41.7235    8.3122 N.ar    1  UNL1       -0.1662
      8 C          13.7355   41.4416    7.2680 C.3     1  UNL1        0.1569
      9 C          14.3894   42.8062    7.1172 C.3     1  UNL1        0.1395
     10 C          15.8384   42.7687    7.6349 C.3     1  UNL1        0.0317
     11 C          16.7955   43.5002    6.6903 C.3     1  UNL1        0.0051
     12 C          16.1671   44.7786    6.1299 C.3     1  UNL1        0.0322
     13 C          14.6900   44.5707    5.7573 C.3     1  UNL1        0.1421
     14 O          14.3409   43.2075    5.7700 O.3     1  UNL1       -0.3542
     15 S           7.4709   41.5329    6.3235 S.O2    1  UNL1        0.0584
     16 O           7.0968   40.0902    6.5165 O.2     1  UNL1       -0.1541
     17 O           6.5172   42.1839    5.3615 O.2     1  UNL1       -0.1541
     18 C           7.4053   42.3806    7.8912 C.3     1  UNL1        0.2010
     19 F           3.6019   40.2413   10.0805 F       1  UNL1       -0.2042
     20 F           5.7814   44.7316    7.7477 F       1  UNL1       -0.2044
     21 C           4.1408   41.3424    9.5050 C.ar    1  UNL1        0.1400
     22 C           5.4446   41.3010    9.0028 C.ar    1  UNL1        0.0294
     23 C           6.0051   42.4362    8.4059 C.ar    1  UNL1        0.0329
     24 C           5.2548   43.6196    8.3188 C.ar    1  UNL1        0.1380
     25 C           3.9509   43.6576    8.8227 C.ar    1  UNL1        0.0317
     26 C           3.3942   42.5205    9.4150 C.ar    1  UNL1        0.0319
@<TRIPOS>BOND
     1    21    19    1
     2    22    23   ar
     3    18    23    1
     4    18    15    1
     5     4     6   ar
     6     8     6    1
     7     9     8    1
     8     9    10    1
     9     9    14    1
    10    10    11    1
    11    11    12    1
    12    12    13    1
    13    13    14    1
    14     5     3   ar
    15    24    20    1
    16    24    25   ar
    17    26    21   ar
    18    15     1    1
    19     1     3    1
    20     6     7   ar
    21    21    22   ar
    22    23    24   ar
    23     3     4   ar
    24     5     7   ar
    25    25    26   ar
    26    15    16    2
    27    15    17    2
    28     1     2    1
@<TRIPOS>MOLECULE
MolPort-039-210-488 CSSS03437013823 MCULE-4377879429 PubChem-121017036
 26 28 0 0 0
SMALL
GASTEIGER

@<TRIPOS>ATOM
      1 N           9.3502   42.1292    5.9213 N.pl3   1  UNL1       -0.2154
      2 H           9.3408   43.0312    5.5271 H       1  UNL1        0.1735
      3 C          10.5962   41.5808    6.3516 C.ar    1  UNL1        0.1040
      4 C          11.5291   42.2380    7.1199 C.ar    1  UNL1        0.1125
      5 C          11.0831   40.3169    6.0758 C.ar    1  UNL1        0.1374
      6 N          12.5379   41.3654    7.2886 N.ar    1  UNL1       -0.2456
      7 N          12.2881   40.2209    6.6711 N.ar    1  UNL1       -0.1662
      8 C          13.7629   41.6366    8.0236 C.3     1  UNL1        0.1569
      9 C          14.8126   42.2418    7.1048 C.3     1  UNL1        0.1395
     10 C          14.1713   43.2771    6.1635 C.3     1  UNL1        0.0317
     11 C          15.0246   44.5429    6.0497 C.3     1  UNL1        0.0051
     12 C          16.5184   44.2129    5.9954 C.3     1  UNL1        0.0322
     13 C          16.8898   43.0922    6.9803 C.3     1  UNL1        0.1421
     14 O          15.8377   42.8207    7.8746 O.3     1  UNL1       -0.3542
     15 S           7.8556   41.2685    6.0665 S.O2    1  UNL1        0.0584
     16 O           7.9502   39.9653    5.3238 O.2     1  UNL1       -0.1541
     17 O           6.7384   42.0993    5.5004 O.2     1  UNL1       -0.1541
     18 C           7.5434   40.9493    7.7931 C.3     1  UNL1        0.2010
     19 F           7.7043   45.5903    9.3002 F       1  UNL1       -0.2042
     20 F           9.6807   40.4581    9.6302 F       1  UNL1       -0.2044
     21 C           8.1882   44.3278    9.3772 C.ar    1  UNL1        0.1400
     22 C           7.6469   43.3218    8.5717 C.ar    1  UNL1        0.0294
     23 C           8.1450   42.0160    8.6469 C.ar    1  UNL1        0.0329
     24 C           9.1870   41.7182    9.5394 C.ar    1  UNL1        0.1380
     25 C           9.7258   42.7270   10.3442 C.ar    1  UNL1        0.0317
     26 C           9.2273   44.0304   10.2632 C.ar    1  UNL1        0.0319
@<TRIPOS>BOND
     1    21    19    1
     2    22    23   ar
     3    18    23    1
     4    18    15    1
     5     4     6   ar
     6     8     6    1
     7     9     8    1
     8     9    10    1
     9     9    14    1
    10    10    11    1
    11    11    12    1
    12    12    13    1
    13    13    14    1
    14     5     3   ar
    15    24    20    1
    16    24    25   ar
    17    26    21   ar
    18    15     1    1
    19     1     3    1
    20     6     7   ar
    21    21    22   ar
    22    23    24   ar
    23     3     4   ar
    24     5     7   ar
    25    25    26   ar
    26    15    16    2
    27    15    17    2
    28     1     2    1
@<TRIPOS>MOLECULE
MolPort-039-210-488 CSSS03437013823 MCULE-4377879429 PubChem-121017036
 26 28 0 0 0
SMALL
GASTEIGER

@<TRIPOS>ATOM
      1 N           8.5163   41.1823    5.7416 N.pl3   1  UNL1       -0.2154
      2 H           8.0905   41.7583    5.0662 H       1  UNL1        0.1735
      3 C           9.9242   41.2943    5.9505 C.ar    1  UNL1        0.1040
      4 C          10.5215   42.0040    6.9663 C.ar    1  UNL1        0.1125
      5 C          10.9224   40.7248    5.1823 C.ar    1  UNL1        0.1374
      6 N          11.8446   41.8436    6.7899 N.ar    1  UNL1       -0.2456
      7 N          12.0976   41.0887    5.7318 N.ar    1  UNL1       -0.1662
      8 C          12.8768   42.4388    7.6235 C.3     1  UNL1        0.1569
      9 C          14.1295   42.7126    6.8063 C.3     1  UNL1        0.1395
     10 C          13.8812   43.8574    5.8079 C.3     1  UNL1        0.0317
     11 C          15.0533   44.8415    5.7729 C.3     1  UNL1        0.0051
     12 C          16.3996   44.1180    5.8591 C.3     1  UNL1        0.0322
     13 C          16.3622   42.9653    6.8758 C.3     1  UNL1        0.1421
     14 O          15.2000   43.0126    7.6680 O.3     1  UNL1       -0.3542
     15 S           7.5296   40.0724    6.6305 S.O2    1  UNL1        0.0584
     16 O           8.4025   39.1835    7.4711 O.2     1  UNL1       -0.1541
     17 O           6.7216   39.2395    5.6754 O.2     1  UNL1       -0.1541
     18 C           6.4316   41.0001    7.6861 C.3     1  UNL1        0.2010
     19 F           9.4439   42.3646   11.2778 F       1  UNL1       -0.2042
     20 F           6.3553   43.7592    6.9337 F       1  UNL1       -0.2044
     21 C           8.6823   42.7035   10.2104 C.ar    1  UNL1        0.1400
     22 C           7.9656   41.7197    9.5230 C.ar    1  UNL1        0.0294
     23 C           7.1762   42.0656    8.4203 C.ar    1  UNL1        0.0329
     24 C           7.1113   43.4043    8.0026 C.ar    1  UNL1        0.1380
     25 C           7.8301   44.3858    8.6922 C.ar    1  UNL1        0.0317
     26 C           8.6146   44.0362    9.7949 C.ar    1  UNL1        0.0319
@<TRIPOS>BOND
     1    21    19    1
     2    22    23   ar
     3    18    23    1
     4    18    15    1
     5     4     6   ar
     6     8     6    1
     7     9     8    1
     8     9    10    1
     9     9    14    1
    10    10    11    1
    11    11    12    1
    12    12    13    1
    13    13    14    1
    14     5     3   ar
    15    24    20    1
    16    24    25   ar
    17    26    21   ar
    18    15     1    1
    19     1     3    1
    20     6     7   ar
    21    21    22   ar
    22    23    24   ar
    23     3     4   ar
    24     5     7   ar
    25    25    26   ar
    26    15    16    2
    27    15    17    2
    28     1     2    1
@<TRIPOS>MOLECULE
MolPort-039-210-488 CSSS03437013823 MCULE-4377879429 PubChem-121017036
 26 28 0 0 0
SMALL
GASTEIGER

@<TRIPOS>ATOM
      1 N          11.2177   41.6537    8.5980 N.pl3   1  UNL1       -0.2154
      2 H          11.1332   41.9250    9.5406 H       1  UNL1        0.1735
      3 C          10.0993   41.8331    7.7289 C.ar    1  UNL1        0.1040
      4 C           8.9071   42.4218    8.0815 C.ar    1  UNL1        0.1125
      5 C          10.0121   41.4512    6.4033 C.ar    1  UNL1        0.1374
      6 N           8.1442   42.3841    6.9751 N.ar    1  UNL1       -0.2456
      7 N           8.7866   41.8073    5.9711 N.ar    1  UNL1       -0.1662
      8 C           6.7800   42.8792    6.8838 C.3     1  UNL1        0.1569
      9 C           6.1072   42.8416    8.2470 C.3     1  UNL1        0.1395
     10 C           5.0343   43.9406    8.3480 C.3     1  UNL1        0.0317
     11 C           3.7490   43.4183    8.9951 C.3     1  UNL1        0.0051
     12 C           4.0487   42.4678   10.1571 C.3     1  UNL1        0.0322
     13 C           5.2141   41.5196    9.8306 C.3     1  UNL1        0.1421
     14 O           5.5525   41.5677    8.4655 O.3     1  UNL1       -0.3542
     15 S          12.7165   40.9773    8.0576 S.O2    1  UNL1        0.0584
     16 O          12.4982   39.5580    7.6141 O.2     1  UNL1       -0.1541
     17 O          13.7190   41.0145    9.1768 O.2     1  UNL1       -0.1541
     18 C          13.3201   41.9443    6.6861 C.3     1  UNL1        0.2010
     19 F          17.6619   41.8495    8.9168 F       1  UNL1       -0.2042
     20 F          14.0435   44.5534    5.7622 F       1  UNL1       -0.2044
     21 C          16.7691   42.5114    8.1429 C.ar    1  UNL1        0.1400
     22 C          15.5433   41.9184    7.8273 C.ar    1  UNL1        0.0294
     23 C          14.6170   42.5993    7.0290 C.ar    1  UNL1        0.0329
     24 C          14.9260   43.8788    6.5407 C.ar    1  UNL1        0.1380
     25 C          16.1535   44.4688    6.8579 C.ar    1  UNL1        0.0317
     26 C          17.0741   43.7863    7.6582 C.ar    1  UNL1        0.0319
@<TRIPOS>BOND
     1    21    19    1
     2    22    23   ar
     3    18    23    1
     4    18    15    1
     5     4     6   ar
     6     8     6    1
     7     9     8    1
     8     9    10    1
     9     9    14    1
    10    10    11    1
    11    11    12    1
    12    12    13    1
    13    13    14    1
    14     5     3   ar
    15    24    20    1
    16    24    25   ar
    17    26    21   ar
    18    15     1    1
    19     1     3    1
    20     6     7   ar
    21    21    22   ar
    22    23    24   ar
    23     3     4   ar
    24     5     7   ar
    25    25    26   ar
    26    15    16    2
    27    15    17    2
    28     1     2    1
@<TRIPOS>MOLECULE
MolPort-039-210-488 CSSS03437013823 MCULE-4377879429 PubChem-121017036
 26 28 0 0 0
SMALL
GASTEIGER

@<TRIPOS>ATOM
      1 N          11.6496   42.6671    8.9434 N.pl3   1  UNL1       -0.2154
      2 H          12.1083   43.5222    8.7771 H       1  UNL1        0.1735
      3 C          10.3681   42.6862    9.5724 C.ar    1  UNL1        0.1040
      4 C           9.2693   41.9711    9.1559 C.ar    1  UNL1        0.1125
      5 C          10.0054   43.4157   10.6890 C.ar    1  UNL1        0.1374
      6 N           8.2878   42.2799   10.0212 N.ar    1  UNL1       -0.2456
      7 N           8.7098   43.1397   10.9356 N.ar    1  UNL1       -0.1662
      8 C           6.9274   41.7699    9.9582 C.3     1  UNL1        0.1569
      9 C           6.1315   42.5055    8.8915 C.3     1  UNL1        0.1395
     10 C           4.6222   42.3879    9.1694 C.3     1  UNL1        0.0317
     11 C           3.9048   43.7256    8.9713 C.3     1  UNL1        0.0051
     12 C           4.4496   44.4833    7.7579 C.3     1  UNL1        0.0322
     13 C           5.9811   44.3834    7.6651 C.3     1  UNL1        0.1421
     14 O           6.5364   43.8517    8.8438 O.3     1  UNL1       -0.3542
     15 S          12.4277   41.1978    8.4621 S.O2    1  UNL1        0.0584
     16 O          11.3968   40.1212    8.2694 O.2     1  UNL1       -0.1541
     17 O          13.4121   40.7793    9.5179 O.2     1  UNL1       -0.1541
     18 C          13.2878   41.4813    6.9259 C.3     1  UNL1        0.2010
     19 F          17.6488   42.2793    8.9707 F       1  UNL1       -0.2042
     20 F          13.5917   44.0415    5.6860 F       1  UNL1       -0.2044
     21 C          16.6487   42.7094    8.1652 C.ar    1  UNL1        0.1400
     22 C          15.5175   41.9120    7.9694 C.ar    1  UNL1        0.0294
     23 C          14.4808   42.3532    7.1390 C.ar    1  UNL1        0.0329
     24 C          14.5837   43.5979    6.4979 C.ar    1  UNL1        0.1380
     25 C          15.7170   44.3929    6.6957 C.ar    1  UNL1        0.0317
     26 C          16.7484   43.9495    7.5285 C.ar    1  UNL1        0.0319
@<TRIPOS>BOND
     1    21    19    1
     2    22    23   ar
     3    18    23    1
     4    18    15    1
     5     4     6   ar
     6     8     6    1
     7     9     8    1
     8     9    10    1
     9     9    14    1
    10    10    11    1
    11    11    12    1
    12    12    13    1
    13    13    14    1
    14     5     3   ar
    15    24    20    1
    16    24    25   ar
    17    26    21   ar
    18    15     1    1
    19     1     3    1
    20     6     7   ar
    21    21    22   ar
    22    23    24   ar
    23     3     4   ar
    24     5     7   ar
    25    25    26   ar
    26    15    16    2
    27    15    17    2
    28     1     2    1
@<TRIPOS>MOLECULE
MolPort-039-210-488 CSSS03437013823 MCULE-4377879429 PubChem-121017036
 26 28 0 0 0
SMALL
GASTEIGER

@<TRIPOS>ATOM
      1 N           8.5609   41.1651    5.5191 N.pl3   1  UNL1       -0.2154
      2 H           8.2601   41.4454    4.6246 H       1  UNL1        0.1735
      3 C           9.9556   41.2127    5.8206 C.ar    1  UNL1        0.1040
      4 C          10.5251   41.9615    6.8243 C.ar    1  UNL1        0.1125
      5 C          10.9667   40.5319    5.1687 C.ar    1  UNL1        0.1374
      6 N          11.8448   41.7139    6.7557 N.ar    1  UNL1       -0.2456
      7 N          12.1221   40.8689    5.7746 N.ar    1  UNL1       -0.1662
      8 C          12.8526   42.3106    7.6176 C.3     1  UNL1        0.1569
      9 C          14.1094   42.6322    6.8243 C.3     1  UNL1        0.1395
     10 C          13.8353   43.7634    5.8171 C.3     1  UNL1        0.0317
     11 C          14.9676   44.7935    5.8019 C.3     1  UNL1        0.0051
     12 C          16.3398   44.1248    5.9172 C.3     1  UNL1        0.0322
     13 C          16.3283   42.9742    6.9369 C.3     1  UNL1        0.1421
     14 O          15.1497   42.9771    7.7058 O.3     1  UNL1       -0.3542
     15 S           7.3790   40.6332    6.6661 S.O2    1  UNL1        0.0584
     16 O           8.0256   39.7202    7.6697 O.2     1  UNL1       -0.1541
     17 O           6.2742   39.9066    5.9517 O.2     1  UNL1       -0.1541
     18 C           6.7094   42.0591    7.5021 C.3     1  UNL1        0.2010
     19 F           3.1362   40.2106   10.2681 F       1  UNL1       -0.2042
     20 F           8.1809   42.3998    9.9317 F       1  UNL1       -0.2044
     21 C           4.3752   40.7504   10.1813 C.ar    1  UNL1        0.1400
     22 C           4.8889   41.1235    8.9360 C.ar    1  UNL1        0.0294
     23 C           6.1683   41.6832    8.8417 C.ar    1  UNL1        0.0329
     24 C           6.9372   41.8630   10.0025 C.ar    1  UNL1        0.1380
     25 C           6.4203   41.4882   11.2466 C.ar    1  UNL1        0.0317
     26 C           5.1408   40.9327   11.3362 C.ar    1  UNL1        0.0319
@<TRIPOS>BOND
     1    21    19    1
     2    22    23   ar
     3    18    23    1
     4    18    15    1
     5     4     6   ar
     6     8     6    1
     7     9     8    1
     8     9    10    1
     9     9    14    1
    10    10    11    1
    11    11    12    1
    12    12    13    1
    13    13    14    1
    14     5     3   ar
    15    24    20    1
    16    24    25   ar
    17    26    21   ar
    18    15     1    1
    19     1     3    1
    20     6     7   ar
    21    21    22   ar
    22    23    24   ar
    23     3     4   ar
    24     5     7   ar
    25    25    26   ar
    26    15    16    2
    27    15    17    2
    28     1     2    1
@<TRIPOS>MOLECULE
MolPort-039-210-488 CSSS03437013823 MCULE-4377879429 PubChem-121017036
 26 28 0 0 0
SMALL
GASTEIGER

@<TRIPOS>ATOM
      1 N          11.2287   42.1763    6.1049 N.pl3   1  UNL1       -0.2154
      2 H          10.8182   43.0407    5.8737 H       1  UNL1        0.1735
      3 C          12.5834   42.1580    6.5553 C.ar    1  UNL1        0.1040
      4 C          13.0657   41.3879    7.5880 C.ar    1  UNL1        0.1125
      5 C          13.6339   42.8995    6.0480 C.ar    1  UNL1        0.1374
      6 N          14.3758   41.6772    7.6735 N.ar    1  UNL1       -0.2456
      7 N          14.7268   42.5763    6.7668 N.ar    1  UNL1       -0.1662
      8 C          15.2949   41.1100    8.6472 C.3     1  UNL1        0.1569
      9 C          14.6257   39.9826    9.4176 C.3     1  UNL1        0.1395
     10 C          15.6837   39.0473   10.0300 C.3     1  UNL1        0.0317
     11 C          15.3386   38.6715   11.4733 C.3     1  UNL1        0.0051
     12 C          13.8382   38.4238   11.6482 C.3     1  UNL1        0.0322
     13 C          12.9975   39.4522   10.8740 C.3     1  UNL1        0.1421
     14 O          13.7871   40.5208   10.4102 O.3     1  UNL1       -0.3542
     15 S          10.2806   40.7365    5.9498 S.O2    1  UNL1        0.0584
     16 O          11.1887   39.5503    5.7849 O.2     1  UNL1       -0.1541
     17 O           9.3742   40.8558    4.7568 O.2     1  UNL1       -0.1541
     18 C           9.2988   40.5352    7.4248 C.3     1  UNL1        0.2010
     19 F           6.1941   44.2773    6.9849 F       1  UNL1       -0.2042
     20 F          10.3374   41.8893    9.7209 F       1  UNL1       -0.2044
     21 C           7.2135   43.6877    7.6537 C.ar    1  UNL1        0.1400
     22 C           7.7236   42.4636    7.2119 C.ar    1  UNL1        0.0294
     23 C           8.7780   41.8514    7.8991 C.ar    1  UNL1        0.0329
     24 C           9.3181   42.4684    9.0386 C.ar    1  UNL1        0.1380
     25 C           8.8050   43.6928    9.4782 C.ar    1  UNL1        0.0317
     26 C           7.7541   44.3021    8.7867 C.ar    1  UNL1        0.0319
@<TRIPOS>BOND
     1    21    19    1
     2    22    23   ar
     3    18    23    1
     4    18    15    1
     5     4     6   ar
     6     8     6    1
     7     9     8    1
     8     9    10    1
     9     9    14    1
    10    10    11    1
    11    11    12    1
    12    12    13    1
    13    13    14    1
    14     5     3   ar
    15    24    20    1
    16    24    25   ar
    17    26    21   ar
    18    15     1    1
    19     1     3    1
    20     6     7   ar
    21    21    22   ar
    22    23    24   ar
    23     3     4   ar
    24     5     7   ar
    25    25    26   ar
    26    15    16    2
    27    15    17    2
    28     1     2    1
@<TRIPOS>MOLECULE
MolPort-039-210-488 CSSS03437013823 MCULE-4377879429 PubChem-121017036
 26 28 0 0 0
SMALL
GASTEIGER

@<TRIPOS>ATOM
      1 N          12.3021   41.8975    5.5293 N.pl3   1  UNL1       -0.2154
      2 H          12.7631   42.1727    4.7041 H       1  UNL1        0.1735
      3 C          10.9999   41.3209    5.4288 C.ar    1  UNL1        0.1040
      4 C           9.8883   41.7471    6.1180 C.ar    1  UNL1        0.1125
      5 C          10.6286   40.2486    4.6395 C.ar    1  UNL1        0.1374
      6 N           8.8892   40.9355    5.7298 N.ar    1  UNL1       -0.2456
      7 N           9.3151   40.0383    4.8541 N.ar    1  UNL1       -0.1662
      8 C           7.5216   41.0008    6.2200 C.3     1  UNL1        0.1569
      9 C           7.3572   42.1625    7.1873 C.3     1  UNL1        0.1395
     10 C           6.8375   43.4086    6.4483 C.3     1  UNL1        0.0317
     11 C           5.7329   44.1150    7.2384 C.3     1  UNL1        0.0051
     12 C           6.0337   44.1285    8.7393 C.3     1  UNL1        0.0322
     13 C           6.6154   42.7872    9.2153 C.3     1  UNL1        0.1421
     14 O           6.4893   41.7906    8.2298 O.3     1  UNL1       -0.3542
     15 S          13.1012   42.1310    7.0468 S.O2    1  UNL1        0.0584
     16 O          12.6598   43.4331    7.6538 O.2     1  UNL1       -0.1541
     17 O          14.5893   42.1440    6.8362 O.2     1  UNL1       -0.1541
     18 C          12.6665   40.7877    8.1361 C.3     1  UNL1        0.2010
     19 F           9.7817   44.2139   10.0791 F       1  UNL1       -0.2042
     20 F          12.0623   39.2120   10.4462 F       1  UNL1       -0.2044
     21 C          10.3455   42.9856   10.1662 C.ar    1  UNL1        0.1400
     22 C          11.1927   42.5322    9.1511 C.ar    1  UNL1        0.0294
     23 C          11.7787   41.2641    9.2377 C.ar    1  UNL1        0.0329
     24 C          11.5075   40.4457   10.3457 C.ar    1  UNL1        0.1380
     25 C          10.6590   40.9023   11.3592 C.ar    1  UNL1        0.0317
     26 C          10.0787   42.1708   11.2699 C.ar    1  UNL1        0.0319
@<TRIPOS>BOND
     1    21    19    1
     2    22    23   ar
     3    18    23    1
     4    18    15    1
     5     4     6   ar
     6     8     6    1
     7     9     8    1
     8     9    10    1
     9     9    14    1
    10    10    11    1
    11    11    12    1
    12    12    13    1
    13    13    14    1
    14     5     3   ar
    15    24    20    1
    16    24    25   ar
    17    26    21   ar
    18    15     1    1
    19     1     3    1
    20     6     7   ar
    21    21    22   ar
    22    23    24   ar
    23     3     4   ar
    24     5     7   ar
    25    25    26   ar
    26    15    16    2
    27    15    17    2
    28     1     2    1
