@<TRIPOS>MOLECULE
MolPort-001-758-260 15021238 LN00192691 MCULE-4614069524 PubChem-26369933 ZINC000015021238 ZINC15021238
 19 19 0 0 0
SMALL
GASTEIGER

@<TRIPOS>ATOM
      1 C          15.8834   43.9384    6.1387 C.ar    1  UNL1        0.2426
      2 C          15.1673   45.0591    5.7655 C.ar    1  UNL1        0.1476
      3 C          13.8794   43.3721    5.9184 C.ar    1  UNL1        0.2978
      4 O          15.0690   42.9178    6.2252 O.2     1  UNL1       -0.4168
      5 N          13.8776   44.6895    5.6248 N.ar    1  UNL1       -0.1925
      6 C          11.9510   42.1720    7.0546 C.2     1  UNL1        0.4085
      7 O          12.2853   42.5765    8.2019 O.2     1  UNL1       -0.2260
      8 N          12.7128   42.5432    5.9014 N.am    1  UNL1       -0.2047
      9 H          12.4110   42.2019    5.0287 H       1  UNL1        0.1626
     10 O          10.8273   41.3515    6.8864 O.3     1  UNL1       -0.4416
     11 C          10.8684   39.9249    6.7988 C.3     1  UNL1        0.1378
     12 C          12.1200   39.3813    7.4662 C.3     1  UNL1        0.0437
     13 C           9.6356   39.3111    7.4397 C.3     1  UNL1        0.0437
     14 C          10.8952   39.5297    5.3376 C.3     1  UNL1        0.0437
     15 C          17.3231   43.8735    6.4023 C.2     1  UNL1        0.3780
     16 O          18.1177   43.5331    5.4834 O.2     1  UNL1       -0.2414
     17 O          17.8017   44.1915    7.6743 O.3     1  UNL1       -0.4433
     18 C          17.5041   42.0181    8.6405 C.3     1  UNL1        0.0513
     19 C          17.3520   43.5119    8.8369 C.3     1  UNL1        0.2090
@<TRIPOS>BOND
     1    18    19    1
     2    19    17    1
     3    15    17    1
     4    15     1    1
     5     1     4   ar
     6     2     5   ar
     7     3     8    1
     8     3     4   ar
     9     6    10    1
    10    11    10    1
    11    11    12    1
    12    11    13    1
    13    11    14    1
    14     8     6   am
    15    15    16    2
    16     1     2   ar
    17     3     5   ar
    18     6     7    2
    19     8     9    1
@<TRIPOS>MOLECULE
MolPort-001-758-260 15021238 LN00192691 MCULE-4614069524 PubChem-26369933 ZINC000015021238 ZINC15021238
 19 19 0 0 0
SMALL
GASTEIGER

@<TRIPOS>ATOM
      1 C          15.6846   43.8166    6.3222 C.ar    1  UNL1        0.2426
      2 C          14.7400   44.5059    5.5871 C.ar    1  UNL1        0.1476
      3 C          13.7930   43.2297    7.0022 C.ar    1  UNL1        0.2978
      4 O          15.0765   43.0410    7.1829 O.2     1  UNL1       -0.4168
      5 N          13.5236   44.1246    6.0285 N.ar    1  UNL1       -0.1925
      6 C          11.7589   41.7249    7.2204 C.2     1  UNL1        0.4085
      7 O          11.6709   41.5478    5.9744 O.2     1  UNL1       -0.2260
      8 N          12.7933   42.5488    7.7672 N.am    1  UNL1       -0.2047
      9 H          12.8193   42.6555    8.7456 H       1  UNL1        0.1626
     10 O          10.8457   41.1185    8.0938 O.3     1  UNL1       -0.4416
     11 C          10.6838   41.4673    9.4710 C.3     1  UNL1        0.1378
     12 C           9.3112   41.0530    9.9726 C.3     1  UNL1        0.0437
     13 C          11.7607   40.8154   10.3210 C.3     1  UNL1        0.0437
     14 C          10.8100   42.9697    9.6083 C.3     1  UNL1        0.0437
     15 C          17.1396   43.9180    6.1827 C.2     1  UNL1        0.3780
     16 O          17.6687   43.8634    5.0387 O.2     1  UNL1       -0.2414
     17 O          17.9279   44.0752    7.3237 O.3     1  UNL1       -0.4433
     18 C          17.8406   41.9846    8.4933 C.3     1  UNL1        0.0513
     19 C          17.5823   43.4751    8.5632 C.3     1  UNL1        0.2090
@<TRIPOS>BOND
     1    18    19    1
     2    19    17    1
     3    15    17    1
     4    15     1    1
     5     1     4   ar
     6     2     5   ar
     7     3     8    1
     8     3     4   ar
     9     6    10    1
    10    11    10    1
    11    11    12    1
    12    11    13    1
    13    11    14    1
    14     8     6   am
    15    15    16    2
    16     1     2   ar
    17     3     5   ar
    18     6     7    2
    19     8     9    1
@<TRIPOS>MOLECULE
MolPort-001-758-260 15021238 LN00192691 MCULE-4614069524 PubChem-26369933 ZINC000015021238 ZINC15021238
 19 19 0 0 0
SMALL
GASTEIGER

@<TRIPOS>ATOM
      1 C          11.6935   40.9199   10.1449 C.ar    1  UNL1        0.2426
      2 C          12.2687   39.6758   10.3163 C.ar    1  UNL1        0.1476
      3 C          13.4624   40.8740    9.0251 C.ar    1  UNL1        0.2978
      4 O          12.4464   41.6347    9.3483 O.2     1  UNL1       -0.4168
      5 N          13.4073   39.6510    9.5934 N.ar    1  UNL1       -0.1925
      6 C          14.4116   42.3850    7.2181 C.2     1  UNL1        0.4085
      7 O          13.3365   43.0346    7.1005 O.2     1  UNL1       -0.2260
      8 N          14.5138   41.3106    8.1577 N.am    1  UNL1       -0.2047
      9 H          15.3740   40.8348    8.2116 H       1  UNL1        0.1626
     10 O          15.5271   42.7027    6.4313 O.3     1  UNL1       -0.4416
     11 C          16.2974   43.9005    6.5592 C.3     1  UNL1        0.1378
     12 C          15.4808   45.1118    6.1429 C.3     1  UNL1        0.0437
     13 C          16.7863   44.0755    7.9867 C.3     1  UNL1        0.0437
     14 C          17.5032   43.8007    5.6493 C.3     1  UNL1        0.0437
     15 C          10.4430   41.3908   10.7458 C.2     1  UNL1        0.3780
     16 O          10.1706   41.1015   11.9432 O.2     1  UNL1       -0.2414
     17 O           9.5628   42.1590    9.9822 O.3     1  UNL1       -0.4433
     18 C           7.8733   41.2079    8.5726 C.3     1  UNL1        0.0513
     19 C           8.1772   41.8588    9.9057 C.3     1  UNL1        0.2090
@<TRIPOS>BOND
     1    18    19    1
     2    19    17    1
     3    15    17    1
     4    15     1    1
     5     1     4   ar
     6     2     5   ar
     7     3     8    1
     8     3     4   ar
     9     6    10    1
    10    11    10    1
    11    11    12    1
    12    11    13    1
    13    11    14    1
    14     8     6   am
    15    15    16    2
    16     1     2   ar
    17     3     5   ar
    18     6     7    2
    19     8     9    1
@<TRIPOS>MOLECULE
MolPort-001-758-260 15021238 LN00192691 MCULE-4614069524 PubChem-26369933 ZINC000015021238 ZINC15021238
 19 19 0 0 0
SMALL
GASTEIGER

@<TRIPOS>ATOM
      1 C          11.5522   41.1551   10.2298 C.ar    1  UNL1        0.2426
      2 C          12.1286   39.9257   10.4831 C.ar    1  UNL1        0.1476
      3 C          13.2971   41.0184    9.0801 C.ar    1  UNL1        0.2978
      4 O          12.2895   41.8050    9.3658 O.2     1  UNL1       -0.4168
      5 N          13.2517   39.8422    9.7406 N.ar    1  UNL1       -0.1925
      6 C          14.2681   42.4857    7.2487 C.2     1  UNL1        0.4085
      7 O          13.2481   43.2270    7.2071 O.2     1  UNL1       -0.2260
      8 N          14.3307   41.3844    8.1603 N.am    1  UNL1       -0.2047
      9 H          15.1483   40.8359    8.1543 H       1  UNL1        0.1626
     10 O          15.3599   42.7258    6.4033 O.3     1  UNL1       -0.4416
     11 C          16.2270   43.8588    6.4976 C.3     1  UNL1        0.1378
     12 C          17.4633   43.6625    5.6371 C.3     1  UNL1        0.0437
     13 C          15.5032   45.1263    6.0769 C.3     1  UNL1        0.0437
     14 C          16.6662   44.0142    7.9380 C.3     1  UNL1        0.0437
     15 C          10.3155   41.6745   10.8192 C.2     1  UNL1        0.3780
     16 O           9.9813   42.8757   10.6269 O.2     1  UNL1       -0.2414
     17 O           9.5166   40.8292   11.5907 O.3     1  UNL1       -0.4433
     18 C           9.2672   41.2078   13.9445 C.3     1  UNL1        0.0513
     19 C           8.6275   41.3308   12.5774 C.3     1  UNL1        0.2090
@<TRIPOS>BOND
     1    18    19    1
     2    19    17    1
     3    15    17    1
     4    15     1    1
     5     1     4   ar
     6     2     5   ar
     7     3     8    1
     8     3     4   ar
     9     6    10    1
    10    11    10    1
    11    11    12    1
    12    11    13    1
    13    11    14    1
    14     8     6   am
    15    15    16    2
    16     1     2   ar
    17     3     5   ar
    18     6     7    2
    19     8     9    1
@<TRIPOS>MOLECULE
MolPort-001-758-260 15021238 LN00192691 MCULE-4614069524 PubChem-26369933 ZINC000015021238 ZINC15021238
 19 19 0 0 0
SMALL
GASTEIGER

@<TRIPOS>ATOM
      1 C          13.3782   39.5191   10.9620 C.ar    1  UNL1        0.2426
      2 C          13.7605   40.3495    9.9265 C.ar    1  UNL1        0.1476
      3 C          11.6988   40.6240   10.3756 C.ar    1  UNL1        0.2978
      4 O          12.1087   39.7078   11.2172 O.2     1  UNL1       -0.4168
      5 N          12.6758   41.0588    9.5523 N.ar    1  UNL1       -0.1925
      6 C           9.9657   42.4803   10.3970 C.2     1  UNL1        0.4085
      7 O          10.8387   43.3878   10.4746 O.2     1  UNL1       -0.2260
      8 N          10.3504   41.1029   10.3460 N.am    1  UNL1       -0.2047
      9 H           9.6317   40.4327   10.2858 H       1  UNL1        0.1626
     10 O           8.6023   42.8028   10.3593 O.3     1  UNL1       -0.4416
     11 C           7.8987   43.2230    9.1876 C.3     1  UNL1        0.1378
     12 C           7.8676   44.7388    9.0940 C.3     1  UNL1        0.0437
     13 C           8.5399   42.6434    7.9385 C.3     1  UNL1        0.0437
     14 C           6.4735   42.7194    9.2716 C.3     1  UNL1        0.0437
     15 C          14.2344   38.5701   11.6780 C.2     1  UNL1        0.3780
     16 O          15.3337   38.9545   12.1633 O.2     1  UNL1       -0.2414
     17 O          13.8214   37.2440   11.8163 O.3     1  UNL1       -0.4433
     18 C          12.2515   35.9716   10.5269 C.3     1  UNL1        0.0513
     19 C          13.7008   36.3752   10.6999 C.3     1  UNL1        0.2090
@<TRIPOS>BOND
     1    18    19    1
     2    19    17    1
     3    15    17    1
     4    15     1    1
     5     1     4   ar
     6     2     5   ar
     7     3     8    1
     8     3     4   ar
     9     6    10    1
    10    11    10    1
    11    11    12    1
    12    11    13    1
    13    11    14    1
    14     8     6   am
    15    15    16    2
    16     1     2   ar
    17     3     5   ar
    18     6     7    2
    19     8     9    1
@<TRIPOS>MOLECULE
MolPort-001-758-260 15021238 LN00192691 MCULE-4614069524 PubChem-26369933 ZINC000015021238 ZINC15021238
 19 19 0 0 0
SMALL
GASTEIGER

@<TRIPOS>ATOM
      1 C          14.0117   41.3972    7.8022 C.ar    1  UNL1        0.2426
      2 C          14.3961   42.3133    6.8426 C.ar    1  UNL1        0.1476
      3 C          12.2927   42.0002    6.7695 C.ar    1  UNL1        0.2978
      4 O          12.7164   41.2236    7.7354 O.2     1  UNL1       -0.4168
      5 N          13.2859   42.6987    6.1802 N.ar    1  UNL1       -0.1925
      6 C          10.1213   40.9934    5.9204 C.2     1  UNL1        0.4085
      7 O          10.6198   39.8398    5.8091 O.2     1  UNL1       -0.2260
      8 N          10.9151   42.0870    6.3912 N.am    1  UNL1       -0.2047
      9 H          10.4798   42.9673    6.4603 H       1  UNL1        0.1626
     10 O           8.7806   41.2269    5.5853 O.3     1  UNL1       -0.4416
     11 C           7.6787   41.0660    6.4823 C.3     1  UNL1        0.1378
     12 C           6.8968   39.8061    6.1526 C.3     1  UNL1        0.0437
     13 C           8.1608   41.0105    7.9216 C.3     1  UNL1        0.0437
     14 C           6.7545   42.2556    6.3327 C.3     1  UNL1        0.0437
     15 C          14.8905   40.7143    8.7551 C.2     1  UNL1        0.3780
     16 O          16.0978   41.0644    8.8621 O.2     1  UNL1       -0.2414
     17 O          14.3785   39.6787    9.5384 O.3     1  UNL1       -0.4433
     18 C          14.0701   38.8330   11.7600 C.3     1  UNL1        0.0513
     19 C          13.7199   39.9256   10.7716 C.3     1  UNL1        0.2090
@<TRIPOS>BOND
     1    18    19    1
     2    19    17    1
     3    15    17    1
     4    15     1    1
     5     1     4   ar
     6     2     5   ar
     7     3     8    1
     8     3     4   ar
     9     6    10    1
    10    11    10    1
    11    11    12    1
    12    11    13    1
    13    11    14    1
    14     8     6   am
    15    15    16    2
    16     1     2   ar
    17     3     5   ar
    18     6     7    2
    19     8     9    1
@<TRIPOS>MOLECULE
MolPort-001-758-260 15021238 LN00192691 MCULE-4614069524 PubChem-26369933 ZINC000015021238 ZINC15021238
 19 19 0 0 0
SMALL
GASTEIGER

@<TRIPOS>ATOM
      1 C          13.9146   40.8148    9.1092 C.ar    1  UNL1        0.2426
      2 C          13.1801   40.0877   10.0254 C.ar    1  UNL1        0.1476
      3 C          11.8929   41.2757    8.8173 C.ar    1  UNL1        0.2978
      4 O          13.1003   41.5350    8.3808 O.2     1  UNL1       -0.4168
      5 N          11.8789   40.3878    9.8337 N.ar    1  UNL1       -0.1925
      6 C           9.6856   42.5154    9.0196 C.2     1  UNL1        0.4085
      7 O           9.7573   42.5778   10.2776 O.2     1  UNL1       -0.2260
      8 N          10.7205   41.8804    8.2622 N.am    1  UNL1       -0.2047
      9 H          10.6180   41.8577    7.2833 H       1  UNL1        0.1626
     10 O           8.5915   43.0667    8.3388 O.3     1  UNL1       -0.4416
     11 C           7.3561   42.3872    8.1009 C.3     1  UNL1        0.1378
     12 C           6.3457   42.7130    9.1874 C.3     1  UNL1        0.0437
     13 C           6.7895   42.7616    6.7422 C.3     1  UNL1        0.0437
     14 C           7.6126   40.8953    8.1179 C.3     1  UNL1        0.0437
     15 C          15.3715   40.8016    8.9547 C.2     1  UNL1        0.3780
     16 O          16.0425   39.8239    9.3855 O.2     1  UNL1       -0.2414
     17 O          16.0038   41.8769    8.3286 O.3     1  UNL1       -0.4433
     18 C          17.4982   43.7481    8.4348 C.3     1  UNL1        0.0513
     19 C          17.3322   42.2588    8.6529 C.3     1  UNL1        0.2090
@<TRIPOS>BOND
     1    18    19    1
     2    19    17    1
     3    15    17    1
     4    15     1    1
     5     1     4   ar
     6     2     5   ar
     7     3     8    1
     8     3     4   ar
     9     6    10    1
    10    11    10    1
    11    11    12    1
    12    11    13    1
    13    11    14    1
    14     8     6   am
    15    15    16    2
    16     1     2   ar
    17     3     5   ar
    18     6     7    2
    19     8     9    1
@<TRIPOS>MOLECULE
MolPort-001-758-260 15021238 LN00192691 MCULE-4614069524 PubChem-26369933 ZINC000015021238 ZINC15021238
 19 19 0 0 0
SMALL
GASTEIGER

@<TRIPOS>ATOM
      1 C          10.0426   42.0280    8.0334 C.ar    1  UNL1        0.2426
      2 C           9.8783   41.3067    6.8669 C.ar    1  UNL1        0.1476
      3 C          11.9403   41.7054    7.2088 C.ar    1  UNL1        0.2978
      4 O          11.3172   42.2590    8.2192 O.2     1  UNL1       -0.4168
      5 N          11.1029   41.1015    6.3395 N.ar    1  UNL1       -0.1925
      6 C          14.1131   42.8914    6.6413 C.2     1  UNL1        0.4085
      7 O          13.5300   43.9774    6.3725 O.2     1  UNL1       -0.2260
      8 N          13.3629   41.7462    7.0579 N.am    1  UNL1       -0.2047
      9 H          13.8644   40.9225    7.2560 H       1  UNL1        0.1626
     10 O          15.5067   42.7849    6.5375 O.3     1  UNL1       -0.4416
     11 C          16.4136   43.8881    6.6078 C.3     1  UNL1        0.1378
     12 C          15.7478   45.1632    6.1198 C.3     1  UNL1        0.0437
     13 C          16.9164   44.0811    8.0281 C.3     1  UNL1        0.0437
     14 C          17.6012   43.5966    5.7152 C.3     1  UNL1        0.0437
     15 C           8.9797   42.4756    8.9369 C.2     1  UNL1        0.3780
     16 O           9.0313   42.1859   10.1637 O.2     1  UNL1       -0.2414
     17 O           7.9164   43.2222    8.4269 O.3     1  UNL1       -0.4433
     18 C           6.6251   41.2050    8.3293 C.3     1  UNL1        0.0513
     19 C           6.5897   42.7173    8.3999 C.3     1  UNL1        0.2090
@<TRIPOS>BOND
     1    18    19    1
     2    19    17    1
     3    15    17    1
     4    15     1    1
     5     1     4   ar
     6     2     5   ar
     7     3     8    1
     8     3     4   ar
     9     6    10    1
    10    11    10    1
    11    11    12    1
    12    11    13    1
    13    11    14    1
    14     8     6   am
    15    15    16    2
    16     1     2   ar
    17     3     5   ar
    18     6     7    2
    19     8     9    1
@<TRIPOS>MOLECULE
MolPort-001-758-260 15021238 LN00192691 MCULE-4614069524 PubChem-26369933 ZINC000015021238 ZINC15021238
 19 19 0 0 0
SMALL
GASTEIGER

@<TRIPOS>ATOM
      1 C           5.2268   43.3629    8.6400 C.ar    1  UNL1        0.2426
      2 C           6.2269   44.1373    8.0849 C.ar    1  UNL1        0.1476
      3 C           7.0197   42.2906    8.7841 C.ar    1  UNL1        0.2978
      4 O           5.7407   42.2355    9.0611 O.2     1  UNL1       -0.4168
      5 N           7.3794   43.4427    8.1800 N.ar    1  UNL1       -0.1925
      6 C           9.3230   41.2207    8.7790 C.2     1  UNL1        0.4085
      7 O           9.8501   42.1962    8.1771 O.2     1  UNL1       -0.2260
      8 N           7.9278   41.2294    9.0968 N.am    1  UNL1       -0.2047
      9 H           7.5643   40.4446    9.5671 H       1  UNL1        0.1626
     10 O          10.0930   40.1094    9.1483 O.3     1  UNL1       -0.4416
     11 C          10.5373   39.0926    8.2466 C.3     1  UNL1        0.1378
     12 C           9.4563   38.7651    7.2309 C.3     1  UNL1        0.0437
     13 C          11.8036   39.5265    7.5286 C.3     1  UNL1        0.0437
     14 C          10.8428   37.8405    9.0408 C.3     1  UNL1        0.0437
     15 C           3.8105   43.7204    8.7526 C.2     1  UNL1        0.3780
     16 O           3.4189   44.8657    8.3966 O.2     1  UNL1       -0.2414
     17 O           2.9054   42.7840    9.2547 O.3     1  UNL1       -0.4433
     18 C           2.9877   42.0900   11.5477 C.3     1  UNL1        0.0513
     19 C           3.3148   41.7302   10.1135 C.3     1  UNL1        0.2090
@<TRIPOS>BOND
     1    18    19    1
     2    19    17    1
     3    15    17    1
     4    15     1    1
     5     1     4   ar
     6     2     5   ar
     7     3     8    1
     8     3     4   ar
     9     6    10    1
    10    11    10    1
    11    11    12    1
    12    11    13    1
    13    11    14    1
    14     8     6   am
    15    15    16    2
    16     1     2   ar
    17     3     5   ar
    18     6     7    2
    19     8     9    1
@<TRIPOS>MOLECULE
MolPort-001-758-260 15021238 LN00192691 MCULE-4614069524 PubChem-26369933 ZINC000015021238 ZINC15021238
 19 19 0 0 0
SMALL
GASTEIGER

@<TRIPOS>ATOM
      1 C          10.2039   41.3763   10.2896 C.ar    1  UNL1        0.2426
      2 C          10.4672   42.7320   10.3159 C.ar    1  UNL1        0.1476
      3 C           8.3745   42.3792   10.4697 C.ar    1  UNL1        0.2978
      4 O           8.9125   41.1880   10.3855 O.2     1  UNL1       -0.4168
      5 N           9.2863   43.3736   10.4318 N.ar    1  UNL1       -0.1925
      6 C           6.0078   42.3581    9.5486 C.2     1  UNL1        0.4085
      7 O           6.3787   41.9413    8.4170 O.2     1  UNL1       -0.2260
      8 N           6.9634   42.5867   10.5890 N.am    1  UNL1       -0.2047
      9 H           6.6238   42.9119   11.4539 H       1  UNL1        0.1626
     10 O           4.6531   42.6053    9.8094 O.3     1  UNL1       -0.4416
     11 C           3.7498   41.6572   10.3834 C.3     1  UNL1        0.1378
     12 C           2.7547   41.1665    9.3459 C.3     1  UNL1        0.0437
     13 C           4.5079   40.4777   10.9676 C.3     1  UNL1        0.0437
     14 C           2.9828   42.3334   11.4998 C.3     1  UNL1        0.0437
     15 C          11.1913   40.3001   10.1741 C.2     1  UNL1        0.3780
     16 O          12.4071   40.5308   10.4190 O.2     1  UNL1       -0.2414
     17 O          10.7726   39.0244    9.7928 O.3     1  UNL1       -0.4433
     18 C           9.5709   38.3466    7.8326 C.3     1  UNL1        0.0513
     19 C          10.9321   38.5478    8.4650 C.3     1  UNL1        0.2090
@<TRIPOS>BOND
     1    18    19    1
     2    19    17    1
     3    15    17    1
     4    15     1    1
     5     1     4   ar
     6     2     5   ar
     7     3     8    1
     8     3     4   ar
     9     6    10    1
    10    11    10    1
    11    11    12    1
    12    11    13    1
    13    11    14    1
    14     8     6   am
    15    15    16    2
    16     1     2   ar
    17     3     5   ar
    18     6     7    2
    19     8     9    1
