@<TRIPOS>MOLECULE
MolPort-016-948-775 ChemDiv-V004-5146 MCULE-2022708689 PubChem-46124577 ZINC000040372377 ZINC40372377
 35 38 0 0 0
SMALL
GASTEIGER

@<TRIPOS>ATOM
      1 C          11.5677   42.2090    8.4673 C.ar    1  UNL1        0.0847
      2 C          10.5916   41.4236    7.8373 C.ar    1  UNL1        0.0205
      3 C           9.2837   41.3895    8.3277 C.ar    1  UNL1        0.0162
      4 C           8.9323   42.1347    9.4623 C.ar    1  UNL1        0.0506
      5 C           9.9059   42.9099   10.0988 C.ar    1  UNL1        0.0162
      6 C          11.2144   42.9424    9.6098 C.ar    1  UNL1        0.0205
      7 C          14.5978   42.6693    6.7435 C.ar    1  UNL1        0.3384
      8 C          13.9556   41.4038    8.2866 C.ar    1  UNL1        0.1681
      9 N          13.3220   43.0137    6.9938 N.ar    1  UNL1       -0.1077
     10 N          12.9166   42.2114    7.9634 N.ar    1  UNL1       -0.2081
     11 N          15.0390   41.6608    7.5263 N.ar    1  UNL1       -0.1739
     12 C          13.9705   40.3978    9.3643 C.ar    1  UNL1        0.0321
     13 C          15.1618   40.0181   10.0211 C.ar    1  UNL1       -0.0189
     14 C          16.4852   40.5998    9.6514 C.3     1  UNL1        0.0311
     15 C          15.1207   39.0448   11.0250 C.ar    1  UNL1       -0.0042
     16 C          13.9107   38.4394   11.3725 C.ar    1  UNL1       -0.0003
     17 C          12.7349   38.7980   10.7104 C.ar    1  UNL1        0.0001
     18 C          12.7669   39.7687    9.7062 C.ar    1  UNL1        0.0027
     19 O          15.3739   43.2969    5.7704 O.3     1  UNL1       -0.4430
     20 C          16.3086   44.3119    6.1062 C.3     1  UNL1        0.2406
     21 C          16.6328   44.2464    7.5866 C.3     1  UNL1        0.1895
     22 C          18.3179   42.8405    7.3748 C.3     1  UNL1        0.1743
     23 O          18.0123   44.1423    7.7666 O.3     1  UNL1       -0.3471
     24 C           6.4271   41.5869    9.3615 C.2     1  UNL1        0.2495
     25 O           6.5155   40.9655    8.2675 O.2     1  UNL1       -0.2698
     26 N           7.5976   42.1354    9.9869 N.am    1  UNL1       -0.2804
     27 H           7.4705   42.5559   10.8680 H       1  UNL1        0.1552
     28 C           5.1124   41.7429   10.0090 C.ar    1  UNL1        0.0539
     29 C           4.0842   42.4456    9.3648 C.ar    1  UNL1        0.0076
     30 C           2.8359   42.5918    9.9763 C.ar    1  UNL1        0.0370
     31 C           2.5983   42.0384   11.2384 C.ar    1  UNL1        0.1387
     32 C           3.6257   41.3341   11.8863 C.ar    1  UNL1        0.0370
     33 C           4.8736   41.1875   11.2745 C.ar    1  UNL1        0.0076
     34 C           1.1647   42.6890   13.1464 C.3     1  UNL1        0.2525
     35 O           1.3393   42.2016   11.8228 O.3     1  UNL1       -0.4714
@<TRIPOS>BOND
     1    22    23    1
     2    21    23    1
     3    21    20    1
     4    20    19    1
     5     7    19    1
     6     7    11   ar
     7     8    12    1
     8    13    15   ar
     9    14    13    1
    10    16    17   ar
    11    18    12   ar
    12     2     3   ar
    13     4    26    1
    14     4     5   ar
    15    24    28    1
    16    29    30   ar
    17    31    35    1
    18    31    32   ar
    19    34    35    1
    20    33    28   ar
    21     6     1   ar
    22    10     9   ar
    23    10     8   ar
    24    10     1    1
    25    26    24   am
    26     7     9   ar
    27     8    11   ar
    28    12    13   ar
    29    15    16   ar
    30    17    18   ar
    31     1     2   ar
    32     3     4   ar
    33    24    25    2
    34    28    29   ar
    35    30    31   ar
    36    32    33   ar
    37     5     6   ar
    38    26    27    1
@<TRIPOS>MOLECULE
MolPort-016-948-775 ChemDiv-V004-5146 MCULE-2022708689 PubChem-46124577 ZINC000040372377 ZINC40372377
 35 38 0 0 0
SMALL
GASTEIGER

@<TRIPOS>ATOM
      1 C          13.9352   40.5329    9.3891 C.ar    1  UNL1        0.0847
      2 C          13.3138   40.3051   10.6254 C.ar    1  UNL1        0.0205
      3 C          11.9210   40.3279   10.7339 C.ar    1  UNL1        0.0162
      4 C          11.1262   40.5874    9.6083 C.ar    1  UNL1        0.0506
      5 C          11.7433   40.8257    8.3768 C.ar    1  UNL1        0.0162
      6 C          13.1362   40.8051    8.2685 C.ar    1  UNL1        0.0205
      7 C          17.4030   40.0463    9.7084 C.ar    1  UNL1        0.3384
      8 C          16.1926   41.3732    8.6270 C.ar    1  UNL1        0.1681
      9 N          16.1347   39.6906    9.9797 N.ar    1  UNL1       -0.1077
     10 N          15.3725   40.5313    9.3014 N.ar    1  UNL1       -0.2081
     11 N          17.4908   41.1000    8.8677 N.ar    1  UNL1       -0.1739
     12 C          15.7711   42.4306    7.6901 C.ar    1  UNL1        0.0321
     13 C          16.4235   43.6816    7.6263 C.ar    1  UNL1       -0.0189
     14 C          17.5714   44.0180    8.5183 C.3     1  UNL1        0.0311
     15 C          15.9701   44.6557    6.7306 C.ar    1  UNL1       -0.0042
     16 C          14.8697   44.4016    5.9084 C.ar    1  UNL1       -0.0003
     17 C          14.2101   43.1733    5.9843 C.ar    1  UNL1        0.0001
     18 C          14.6558   42.1950    6.8764 C.ar    1  UNL1        0.0027
     19 O          18.5059   39.3868   10.2486 O.3     1  UNL1       -0.4430
     20 C          18.8038   38.0396    9.9128 C.3     1  UNL1        0.2406
     21 C          18.2442   37.1075   10.9706 C.3     1  UNL1        0.1895
     22 C          17.5292   36.1483    9.1185 C.3     1  UNL1        0.1743
     23 O          17.1749   36.3811   10.4459 O.3     1  UNL1       -0.3471
     24 C           8.8637   41.7256   10.0226 C.2     1  UNL1        0.2495
     25 O           9.3721   42.8606   10.2334 O.2     1  UNL1       -0.2698
     26 N           9.6940   40.6059    9.6778 N.am    1  UNL1       -0.2804
     27 H           9.2315   39.7627    9.4671 H       1  UNL1        0.1552
     28 C           7.4039   41.5492   10.1212 C.ar    1  UNL1        0.0539
     29 C           6.6257   41.4227    8.9618 C.ar    1  UNL1        0.0076
     30 C           5.2414   41.2522    9.0537 C.ar    1  UNL1        0.0370
     31 C           4.6168   41.2060   10.3040 C.ar    1  UNL1        0.1387
     32 C           5.3931   41.3322   11.4671 C.ar    1  UNL1        0.0370
     33 C           6.7772   41.5020   11.3750 C.ar    1  UNL1        0.0076
     34 C           2.3955   41.1394    9.2175 C.3     1  UNL1        0.2525
     35 O           3.2310   41.0339   10.3623 O.3     1  UNL1       -0.4714
@<TRIPOS>BOND
     1    22    23    1
     2    21    23    1
     3    21    20    1
     4    20    19    1
     5     7    19    1
     6     7    11   ar
     7     8    12    1
     8    13    15   ar
     9    14    13    1
    10    16    17   ar
    11    18    12   ar
    12     2     3   ar
    13     4    26    1
    14     4     5   ar
    15    24    28    1
    16    29    30   ar
    17    31    35    1
    18    31    32   ar
    19    34    35    1
    20    33    28   ar
    21     6     1   ar
    22    10     9   ar
    23    10     8   ar
    24    10     1    1
    25    26    24   am
    26     7     9   ar
    27     8    11   ar
    28    12    13   ar
    29    15    16   ar
    30    17    18   ar
    31     1     2   ar
    32     3     4   ar
    33    24    25    2
    34    28    29   ar
    35    30    31   ar
    36    32    33   ar
    37     5     6   ar
    38    26    27    1
@<TRIPOS>MOLECULE
MolPort-016-948-775 ChemDiv-V004-5146 MCULE-2022708689 PubChem-46124577 ZINC000040372377 ZINC40372377
 35 38 0 0 0
SMALL
GASTEIGER

@<TRIPOS>ATOM
      1 C          13.7397   40.5886    9.5286 C.ar    1  UNL1        0.0847
      2 C          12.9477   40.8453    8.4002 C.ar    1  UNL1        0.0205
      3 C          11.5541   40.8536    8.4989 C.ar    1  UNL1        0.0162
      4 C          10.9287   40.5968    9.7273 C.ar    1  UNL1        0.0506
      5 C          11.7154   40.3298   10.8516 C.ar    1  UNL1        0.0162
      6 C          13.1091   40.3192   10.7526 C.ar    1  UNL1        0.0205
      7 C          17.2069   40.0593    9.7783 C.ar    1  UNL1        0.3384
      8 C          15.9880   41.3521    8.6656 C.ar    1  UNL1        0.1681
      9 N          15.9412   39.7388   10.1008 N.ar    1  UNL1       -0.1077
     10 N          15.1738   40.5583    9.4025 N.ar    1  UNL1       -0.2081
     11 N          17.2879   41.0689    8.8846 N.ar    1  UNL1       -0.1739
     12 C          15.5574   42.3695    7.6893 C.ar    1  UNL1        0.0321
     13 C          16.2309   43.6021    7.5422 C.ar    1  UNL1       -0.0189
     14 C          17.4122   43.9595    8.3808 C.3     1  UNL1        0.0311
     15 C          15.7681   44.5390    6.6123 C.ar    1  UNL1       -0.0042
     16 C          14.6379   44.2663    5.8378 C.ar    1  UNL1       -0.0003
     17 C          13.9580   43.0571    5.9961 C.ar    1  UNL1        0.0001
     18 C          14.4130   42.1159    6.9228 C.ar    1  UNL1        0.0027
     19 O          18.3139   39.4083   10.3206 O.3     1  UNL1       -0.4430
     20 C          18.5062   38.0106   10.1600 C.3     1  UNL1        0.2406
     21 C          17.1716   37.2935   10.2344 C.3     1  UNL1        0.1895
     22 C          15.5298   37.1036   11.6939 C.3     1  UNL1        0.1743
     23 O          16.9043   36.9231   11.5527 O.3     1  UNL1       -0.3471
     24 C           8.5905   41.5722    9.3180 C.2     1  UNL1        0.2495
     25 O           9.0083   42.4913    8.5620 O.2     1  UNL1       -0.2698
     26 N           9.5018   40.6098    9.8705 N.am    1  UNL1       -0.2804
     27 H           9.1057   39.8829   10.4034 H       1  UNL1        0.1552
     28 C           7.1530   41.4787    9.6290 C.ar    1  UNL1        0.0539
     29 C           6.7095   41.5477   10.9573 C.ar    1  UNL1        0.0076
     30 C           5.3461   41.4623   11.2536 C.ar    1  UNL1        0.0370
     31 C           4.4086   41.3070   10.2278 C.ar    1  UNL1        0.1387
     32 C           4.8493   41.2376    8.8964 C.ar    1  UNL1        0.0370
     33 C           6.2123   41.3236    8.6004 C.ar    1  UNL1        0.0076
     34 C           2.4486   42.0601   11.5354 C.3     1  UNL1        0.2525
     35 O           3.0528   41.2253   10.5567 O.3     1  UNL1       -0.4714
@<TRIPOS>BOND
     1    22    23    1
     2    21    23    1
     3    21    20    1
     4    20    19    1
     5     7    19    1
     6     7    11   ar
     7     8    12    1
     8    13    15   ar
     9    14    13    1
    10    16    17   ar
    11    18    12   ar
    12     2     3   ar
    13     4    26    1
    14     4     5   ar
    15    24    28    1
    16    29    30   ar
    17    31    35    1
    18    31    32   ar
    19    34    35    1
    20    33    28   ar
    21     6     1   ar
    22    10     9   ar
    23    10     8   ar
    24    10     1    1
    25    26    24   am
    26     7     9   ar
    27     8    11   ar
    28    12    13   ar
    29    15    16   ar
    30    17    18   ar
    31     1     2   ar
    32     3     4   ar
    33    24    25    2
    34    28    29   ar
    35    30    31   ar
    36    32    33   ar
    37     5     6   ar
    38    26    27    1
@<TRIPOS>MOLECULE
MolPort-016-948-775 ChemDiv-V004-5146 MCULE-2022708689 PubChem-46124577 ZINC000040372377 ZINC40372377
 35 38 0 0 0
SMALL
GASTEIGER

@<TRIPOS>ATOM
      1 C           7.1558   41.2293   10.1680 C.ar    1  UNL1        0.0847
      2 C           5.9432   40.9500    9.5215 C.ar    1  UNL1        0.0205
      3 C           4.7366   41.0011   10.2241 C.ar    1  UNL1        0.0162
      4 C           4.7238   41.3246   11.5884 C.ar    1  UNL1        0.0506
      5 C           5.9322   41.5928   12.2381 C.ar    1  UNL1        0.0162
      6 C           7.1391   41.5395   11.5360 C.ar    1  UNL1        0.0205
      7 C          10.4187   40.6992    8.9694 C.ar    1  UNL1        0.3384
      8 C           8.7445   41.7522    8.2744 C.ar    1  UNL1        0.1681
      9 N           9.4454   40.4774    9.8707 N.ar    1  UNL1       -0.1077
     10 N           8.3919   41.1463    9.4340 N.ar    1  UNL1       -0.2081
     11 N          10.0284   41.4969    7.9516 N.ar    1  UNL1       -0.1739
     12 C           7.8582   42.5498    7.4072 C.ar    1  UNL1        0.0321
     13 C           7.4582   43.8615    7.7452 C.ar    1  UNL1       -0.0189
     14 C           7.8943   44.5162    9.0131 C.3     1  UNL1        0.0311
     15 C           6.6009   44.5665    6.8939 C.ar    1  UNL1       -0.0042
     16 C           6.1303   43.9762    5.7185 C.ar    1  UNL1       -0.0003
     17 C           6.5076   42.6719    5.3925 C.ar    1  UNL1        0.0001
     18 C           7.3630   41.9603    6.2373 C.ar    1  UNL1        0.0027
     19 O          11.6971   40.1559    9.0872 O.3     1  UNL1       -0.4430
     20 C          12.4527   40.2866   10.2824 C.3     1  UNL1        0.2406
     21 C          13.9327   40.1627    9.9743 C.3     1  UNL1        0.1895
     22 C          15.6527   41.0563    8.9234 C.3     1  UNL1        0.1743
     23 O          14.2620   40.9768    8.8902 O.3     1  UNL1       -0.3471
     24 C           2.3256   42.1432   11.9940 C.2     1  UNL1        0.2495
     25 O           2.2568   42.7643   10.8984 O.2     1  UNL1       -0.2698
     26 N           3.5046   41.3999   12.3397 N.am    1  UNL1       -0.2804
     27 H           3.4726   40.8885   13.1803 H       1  UNL1        0.1552
     28 C           1.1822   42.1720   12.9233 C.ar    1  UNL1        0.0539
     29 C           1.3716   42.5160   14.2693 C.ar    1  UNL1        0.0076
     30 C           0.2875   42.5467   15.1512 C.ar    1  UNL1        0.0370
     31 C          -0.9989   42.2345   14.7005 C.ar    1  UNL1        0.1387
     32 C          -1.1922   41.8898   13.3532 C.ar    1  UNL1        0.0370
     33 C          -0.1083   41.8596   12.4715 C.ar    1  UNL1        0.0076
     34 C          -1.9252   41.8896   16.9681 C.3     1  UNL1        0.2525
     35 O          -2.0619   42.2749   15.6070 O.3     1  UNL1       -0.4714
@<TRIPOS>BOND
     1    22    23    1
     2    21    23    1
     3    21    20    1
     4    20    19    1
     5     7    19    1
     6     7    11   ar
     7     8    12    1
     8    13    15   ar
     9    14    13    1
    10    16    17   ar
    11    18    12   ar
    12     2     3   ar
    13     4    26    1
    14     4     5   ar
    15    24    28    1
    16    29    30   ar
    17    31    35    1
    18    31    32   ar
    19    34    35    1
    20    33    28   ar
    21     6     1   ar
    22    10     9   ar
    23    10     8   ar
    24    10     1    1
    25    26    24   am
    26     7     9   ar
    27     8    11   ar
    28    12    13   ar
    29    15    16   ar
    30    17    18   ar
    31     1     2   ar
    32     3     4   ar
    33    24    25    2
    34    28    29   ar
    35    30    31   ar
    36    32    33   ar
    37     5     6   ar
    38    26    27    1
@<TRIPOS>MOLECULE
MolPort-016-948-775 ChemDiv-V004-5146 MCULE-2022708689 PubChem-46124577 ZINC000040372377 ZINC40372377
 35 38 0 0 0
SMALL
GASTEIGER

@<TRIPOS>ATOM
      1 C          12.0841   41.0689    9.5102 C.ar    1  UNL1        0.0847
      2 C          11.6152   40.6454   10.7620 C.ar    1  UNL1        0.0205
      3 C          10.2658   40.7823   11.0973 C.ar    1  UNL1        0.0162
      4 C           9.3637   41.3532   10.1882 C.ar    1  UNL1        0.0506
      5 C           9.8304   41.7864    8.9437 C.ar    1  UNL1        0.0162
      6 C          11.1803   41.6516    8.6091 C.ar    1  UNL1        0.0205
      7 C          15.4178   41.4205    8.4485 C.ar    1  UNL1        0.3384
      8 C          14.2838   39.8527    9.2552 C.ar    1  UNL1        0.1681
      9 N          14.1985   41.9349    8.6883 N.ar    1  UNL1       -0.1077
     10 N          13.4829   40.9439    9.1920 N.ar    1  UNL1       -0.2081
     11 N          15.5192   40.1159    8.7836 N.ar    1  UNL1       -0.1739
     12 C          13.9181   38.5387    9.8149 C.ar    1  UNL1        0.0321
     13 C          14.3893   38.1000   11.0720 C.ar    1  UNL1       -0.0189
     14 C          15.3038   38.9341   11.9054 C.3     1  UNL1        0.0311
     15 C          14.0251   36.8357   11.5469 C.ar    1  UNL1       -0.0042
     16 C          13.2080   36.0017   10.7800 C.ar    1  UNL1       -0.0003
     17 C          12.7578   36.4246    9.5277 C.ar    1  UNL1        0.0001
     18 C          13.1171   37.6855    9.0454 C.ar    1  UNL1        0.0027
     19 O          16.4617   42.1690    7.9068 O.3     1  UNL1       -0.4430
     20 C          16.2961   43.5379    7.5673 C.3     1  UNL1        0.2406
     21 C          17.1588   43.8808    6.3678 C.3     1  UNL1        0.1895
     22 C          15.3102   44.9945    5.9166 C.3     1  UNL1        0.1743
     23 O          16.6945   45.0516    5.7678 O.3     1  UNL1       -0.3471
     24 C           6.8694   41.3225    9.5853 C.2     1  UNL1        0.2495
     25 O           7.0684   40.9354    8.4015 O.2     1  UNL1       -0.2698
     26 N           7.9695   41.4981   10.4913 N.am    1  UNL1       -0.2804
     27 H           7.7430   41.7437   11.4174 H       1  UNL1        0.1552
     28 C           5.4948   41.5873   10.0461 C.ar    1  UNL1        0.0539
     29 C           5.0289   41.0275   11.2442 C.ar    1  UNL1        0.0076
     30 C           3.7264   41.2802   11.6841 C.ar    1  UNL1        0.0370
     31 C           2.8728   42.0946   10.9334 C.ar    1  UNL1        0.1387
     32 C           3.3361   42.6567    9.7330 C.ar    1  UNL1        0.0370
     33 C           4.6385   42.4045    9.2938 C.ar    1  UNL1        0.0076
     34 C           1.2795   42.5214   12.7768 C.3     1  UNL1        0.2525
     35 O           1.5765   42.3284   11.4004 O.3     1  UNL1       -0.4714
@<TRIPOS>BOND
     1    22    23    1
     2    21    23    1
     3    21    20    1
     4    20    19    1
     5     7    19    1
     6     7    11   ar
     7     8    12    1
     8    13    15   ar
     9    14    13    1
    10    16    17   ar
    11    18    12   ar
    12     2     3   ar
    13     4    26    1
    14     4     5   ar
    15    24    28    1
    16    29    30   ar
    17    31    35    1
    18    31    32   ar
    19    34    35    1
    20    33    28   ar
    21     6     1   ar
    22    10     9   ar
    23    10     8   ar
    24    10     1    1
    25    26    24   am
    26     7     9   ar
    27     8    11   ar
    28    12    13   ar
    29    15    16   ar
    30    17    18   ar
    31     1     2   ar
    32     3     4   ar
    33    24    25    2
    34    28    29   ar
    35    30    31   ar
    36    32    33   ar
    37     5     6   ar
    38    26    27    1
@<TRIPOS>MOLECULE
MolPort-016-948-775 ChemDiv-V004-5146 MCULE-2022708689 PubChem-46124577 ZINC000040372377 ZINC40372377
 35 38 0 0 0
SMALL
GASTEIGER

@<TRIPOS>ATOM
      1 C          10.1948   40.3655   10.1078 C.ar    1  UNL1        0.0847
      2 C          10.0058   40.8232   11.4198 C.ar    1  UNL1        0.0205
      3 C           8.7174   41.0001   11.9304 C.ar    1  UNL1        0.0162
      4 C           7.5956   40.7300   11.1337 C.ar    1  UNL1        0.0506
      5 C           7.7810   40.2841    9.8219 C.ar    1  UNL1        0.0162
      6 C           9.0695   40.1092    9.3103 C.ar    1  UNL1        0.0205
      7 C          13.6355   39.9184    9.5365 C.ar    1  UNL1        0.3384
      8 C          11.9973   40.4457    8.3393 C.ar    1  UNL1        0.1681
      9 N          12.5614   39.8762   10.3448 N.ar    1  UNL1       -0.1077
     10 N          11.5298   40.2139    9.5899 N.ar    1  UNL1       -0.2081
     11 N          13.3329   40.2753    8.2693 N.ar    1  UNL1       -0.1739
     12 C          11.1837   40.7846    7.1574 C.ar    1  UNL1        0.0321
     13 C          10.6566   42.0791    6.9543 C.ar    1  UNL1       -0.0189
     14 C          10.8757   43.1819    7.9352 C.3     1  UNL1        0.0311
     15 C           9.8757   42.3407    5.8236 C.ar    1  UNL1       -0.0042
     16 C           9.6059   41.3265    4.9016 C.ar    1  UNL1       -0.0003
     17 C          10.1086   40.0408    5.1108 C.ar    1  UNL1        0.0001
     18 C          10.8888   39.7705    6.2376 C.ar    1  UNL1        0.0027
     19 O          14.9251   39.6234    9.9759 O.3     1  UNL1       -0.4430
     20 C          15.2164   39.4372   11.3532 C.3     1  UNL1        0.2406
     21 C          15.3782   37.9589   11.6519 C.3     1  UNL1        0.1895
     22 C          13.9692   38.7861   13.1324 C.3     1  UNL1        0.1743
     23 O          14.6761   37.6290   12.8115 O.3     1  UNL1       -0.3471
     24 C           5.1622   41.5250   10.9536 C.2     1  UNL1        0.2495
     25 O           5.2963   41.9566    9.7760 O.2     1  UNL1       -0.2698
     26 N           6.2582   40.8869   11.6270 N.am    1  UNL1       -0.2804
     27 H           6.0721   40.5186   12.5209 H       1  UNL1        0.1552
     28 C           3.8664   41.6677   11.6410 C.ar    1  UNL1        0.0539
     29 C           3.1894   40.5365   12.1186 C.ar    1  UNL1        0.0076
     30 C           1.9618   40.6705   12.7734 C.ar    1  UNL1        0.0370
     31 C           1.3947   41.9351   12.9595 C.ar    1  UNL1        0.1387
     32 C           2.0700   43.0700   12.4826 C.ar    1  UNL1        0.0370
     33 C           3.2977   42.9359   11.8285 C.ar    1  UNL1        0.0076
     34 C          -0.6044   40.8987   13.9835 C.3     1  UNL1        0.2525
     35 O           0.1664   42.0357   13.6186 O.3     1  UNL1       -0.4714
@<TRIPOS>BOND
     1    22    23    1
     2    21    23    1
     3    21    20    1
     4    20    19    1
     5     7    19    1
     6     7    11   ar
     7     8    12    1
     8    13    15   ar
     9    14    13    1
    10    16    17   ar
    11    18    12   ar
    12     2     3   ar
    13     4    26    1
    14     4     5   ar
    15    24    28    1
    16    29    30   ar
    17    31    35    1
    18    31    32   ar
    19    34    35    1
    20    33    28   ar
    21     6     1   ar
    22    10     9   ar
    23    10     8   ar
    24    10     1    1
    25    26    24   am
    26     7     9   ar
    27     8    11   ar
    28    12    13   ar
    29    15    16   ar
    30    17    18   ar
    31     1     2   ar
    32     3     4   ar
    33    24    25    2
    34    28    29   ar
    35    30    31   ar
    36    32    33   ar
    37     5     6   ar
    38    26    27    1
@<TRIPOS>MOLECULE
MolPort-016-948-775 ChemDiv-V004-5146 MCULE-2022708689 PubChem-46124577 ZINC000040372377 ZINC40372377
 35 38 0 0 0
SMALL
GASTEIGER

@<TRIPOS>ATOM
      1 C           9.1252   40.7722    6.7628 C.ar    1  UNL1        0.0847
      2 C           7.9831   41.3517    6.1918 C.ar    1  UNL1        0.0205
      3 C           7.1943   40.6283    5.2937 C.ar    1  UNL1        0.0162
      4 C           7.5398   39.3148    4.9452 C.ar    1  UNL1        0.0506
      5 C           8.6839   38.7383    5.5045 C.ar    1  UNL1        0.0162
      6 C           9.4741   39.4624    6.4009 C.ar    1  UNL1        0.0205
      7 C          11.6368   42.1935    8.7719 C.ar    1  UNL1        0.3384
      8 C           9.5691   42.4768    8.5740 C.ar    1  UNL1        0.1681
      9 N          11.2455   41.3660    7.7865 N.ar    1  UNL1       -0.1077
     10 N           9.9406   41.5417    7.6663 N.ar    1  UNL1       -0.2081
     11 N          10.6198   42.9083    9.3004 N.ar    1  UNL1       -0.1739
     12 C           8.2132   43.0300    8.7450 C.ar    1  UNL1        0.0321
     13 C           7.2707   42.4507    9.6231 C.ar    1  UNL1       -0.0189
     14 C           7.5837   41.2290   10.4205 C.3     1  UNL1        0.0311
     15 C           5.9918   43.0065    9.7330 C.ar    1  UNL1       -0.0042
     16 C           5.6391   44.1231    8.9712 C.ar    1  UNL1       -0.0003
     17 C           6.5622   44.6850    8.0869 C.ar    1  UNL1        0.0001
     18 C           7.8415   44.1361    7.9705 C.ar    1  UNL1        0.0027
     19 O          12.9610   42.2919    9.1961 O.3     1  UNL1       -0.4430
     20 C          13.8185   41.1603    9.2233 C.3     1  UNL1        0.2406
     21 C          13.4409   40.1991    8.1124 C.3     1  UNL1        0.1895
     22 C          12.1758   38.9927    9.4562 C.3     1  UNL1        0.1743
     23 O          13.2936   38.9112    8.6282 O.3     1  UNL1       -0.3471
     24 C           7.0873   38.1786    2.6890 C.2     1  UNL1        0.2495
     25 O           8.2108   38.4878    2.2064 O.2     1  UNL1       -0.2698
     26 N           6.7478   38.5366    4.0376 N.am    1  UNL1       -0.2804
     27 H           5.8807   38.2141    4.3742 H       1  UNL1        0.1552
     28 C           6.1181   37.4343    1.8653 C.ar    1  UNL1        0.0539
     29 C           4.8765   38.0019    1.5456 C.ar    1  UNL1        0.0076
     30 C           3.9575   37.2985    0.7618 C.ar    1  UNL1        0.0370
     31 C           4.2663   36.0197    0.2876 C.ar    1  UNL1        0.1387
     32 C           5.5087   35.4483    0.6058 C.ar    1  UNL1        0.0370
     33 C           6.4277   36.1520    1.3889 C.ar    1  UNL1        0.0076
     34 C           1.9272   35.5622   -0.3745 C.3     1  UNL1        0.2525
     35 O           3.3262   35.3425   -0.4941 O.3     1  UNL1       -0.4714
@<TRIPOS>BOND
     1    22    23    1
     2    21    23    1
     3    21    20    1
     4    20    19    1
     5     7    19    1
     6     7    11   ar
     7     8    12    1
     8    13    15   ar
     9    14    13    1
    10    16    17   ar
    11    18    12   ar
    12     2     3   ar
    13     4    26    1
    14     4     5   ar
    15    24    28    1
    16    29    30   ar
    17    31    35    1
    18    31    32   ar
    19    34    35    1
    20    33    28   ar
    21     6     1   ar
    22    10     9   ar
    23    10     8   ar
    24    10     1    1
    25    26    24   am
    26     7     9   ar
    27     8    11   ar
    28    12    13   ar
    29    15    16   ar
    30    17    18   ar
    31     1     2   ar
    32     3     4   ar
    33    24    25    2
    34    28    29   ar
    35    30    31   ar
    36    32    33   ar
    37     5     6   ar
    38    26    27    1
@<TRIPOS>MOLECULE
MolPort-016-948-775 ChemDiv-V004-5146 MCULE-2022708689 PubChem-46124577 ZINC000040372377 ZINC40372377
 35 38 0 0 0
SMALL
GASTEIGER

@<TRIPOS>ATOM
      1 C          13.3672   40.5982    9.8631 C.ar    1  UNL1        0.0847
      2 C          12.6821   39.9891   10.9242 C.ar    1  UNL1        0.0205
      3 C          11.3085   40.1857   11.0875 C.ar    1  UNL1        0.0162
      4 C          10.5982   41.0022   10.1960 C.ar    1  UNL1        0.0506
      5 C          11.2805   41.6195    9.1436 C.ar    1  UNL1        0.0162
      6 C          12.6546   41.4248    8.9815 C.ar    1  UNL1        0.0205
      7 C          16.7618   39.7167   10.1155 C.ar    1  UNL1        0.3384
      8 C          15.6694   41.0555    8.9284 C.ar    1  UNL1        0.1681
      9 N          15.4746   39.5568   10.4713 N.ar    1  UNL1       -0.1077
     10 N          14.7875   40.4053    9.7257 N.ar    1  UNL1       -0.2081
     11 N          16.9351   40.6493    9.1539 N.ar    1  UNL1       -0.1739
     12 C          15.3335   42.0453    7.8887 C.ar    1  UNL1        0.0321
     13 C          16.0387   43.2615    7.7535 C.ar    1  UNL1       -0.0189
     14 C          17.1586   43.6289    8.6685 C.3     1  UNL1        0.0311
     15 C          15.6657   44.1731    6.7602 C.ar    1  UNL1       -0.0042
     16 C          14.5935   43.8917    5.9101 C.ar    1  UNL1       -0.0003
     17 C          13.8814   42.6994    6.0552 C.ar    1  UNL1        0.0001
     18 C          14.2468   41.7836    7.0449 C.ar    1  UNL1        0.0027
     19 O          17.8019   38.9882   10.6907 O.3     1  UNL1       -0.4430
     20 C          17.9030   37.5813   10.5265 C.3     1  UNL1        0.2406
     21 C          16.8145   37.0907    9.5911 C.3     1  UNL1        0.1895
     22 C          16.9323   35.2086    8.4486 C.3     1  UNL1        0.1743
     23 O          17.3868   36.5259    8.4510 O.3     1  UNL1       -0.3471
     24 C           8.2861   41.6553    9.2938 C.2     1  UNL1        0.2495
     25 O           8.6956   41.8245    8.1129 O.2     1  UNL1       -0.2698
     26 N           9.1860   41.2170   10.3234 N.am    1  UNL1       -0.2804
     27 H           8.7924   41.0461   11.2094 H       1  UNL1        0.1552
     28 C           6.8694   41.8998    9.6180 C.ar    1  UNL1        0.0539
     29 C           6.3394   41.4739   10.8442 C.ar    1  UNL1        0.0076
     30 C           4.9967   41.7078   11.1543 C.ar    1  UNL1        0.0370
     31 C           4.1664   42.3696   10.2443 C.ar    1  UNL1        0.1387
     32 C           4.6939   42.7976    9.0155 C.ar    1  UNL1        0.0370
     33 C           6.0365   42.5642    8.7059 C.ar    1  UNL1        0.0076
     34 C           2.2988   42.2664   11.8631 C.3     1  UNL1        0.2525
     35 O           2.8286   42.5887   10.5842 O.3     1  UNL1       -0.4714
@<TRIPOS>BOND
     1    22    23    1
     2    21    23    1
     3    21    20    1
     4    20    19    1
     5     7    19    1
     6     7    11   ar
     7     8    12    1
     8    13    15   ar
     9    14    13    1
    10    16    17   ar
    11    18    12   ar
    12     2     3   ar
    13     4    26    1
    14     4     5   ar
    15    24    28    1
    16    29    30   ar
    17    31    35    1
    18    31    32   ar
    19    34    35    1
    20    33    28   ar
    21     6     1   ar
    22    10     9   ar
    23    10     8   ar
    24    10     1    1
    25    26    24   am
    26     7     9   ar
    27     8    11   ar
    28    12    13   ar
    29    15    16   ar
    30    17    18   ar
    31     1     2   ar
    32     3     4   ar
    33    24    25    2
    34    28    29   ar
    35    30    31   ar
    36    32    33   ar
    37     5     6   ar
    38    26    27    1
@<TRIPOS>MOLECULE
MolPort-016-948-775 ChemDiv-V004-5146 MCULE-2022708689 PubChem-46124577 ZINC000040372377 ZINC40372377
 35 38 0 0 0
SMALL
GASTEIGER

@<TRIPOS>ATOM
      1 C           5.4226   41.2433    9.3748 C.ar    1  UNL1        0.0847
      2 C           4.0484   41.3998    9.1433 C.ar    1  UNL1        0.0205
      3 C           3.1604   41.5394   10.2129 C.ar    1  UNL1        0.0162
      4 C           3.6316   41.5165   11.5333 C.ar    1  UNL1        0.0506
      5 C           4.9997   41.3497   11.7674 C.ar    1  UNL1        0.0162
      6 C           5.8876   41.2078   10.6979 C.ar    1  UNL1        0.0205
      7 C           7.2361   40.2285    6.5383 C.ar    1  UNL1        0.3384
      8 C           7.4577   41.7481    7.9654 C.ar    1  UNL1        0.1681
      9 N           6.1758   40.1193    7.3586 N.ar    1  UNL1       -0.1077
     10 N           6.3196   41.0747    8.2611 N.ar    1  UNL1       -0.2081
     11 N           8.0714   41.2332    6.8809 N.ar    1  UNL1       -0.1739
     12 C           7.9718   42.9360    8.6713 C.ar    1  UNL1        0.0321
     13 C           7.3551   44.2017    8.5596 C.ar    1  UNL1       -0.0189
     14 C           6.1525   44.4194    7.7035 C.3     1  UNL1        0.0311
     15 C           7.8960   45.2993    9.2374 C.ar    1  UNL1       -0.0042
     16 C           9.0479   45.1521   10.0139 C.ar    1  UNL1       -0.0003
     17 C           9.6714   43.9064   10.1092 C.ar    1  UNL1        0.0001
     18 C           9.1383   42.8050    9.4351 C.ar    1  UNL1        0.0027
     19 O           7.4407   39.3823    5.4495 O.3     1  UNL1       -0.4430
     20 C           8.7283   38.8709    5.1378 C.3     1  UNL1        0.2406
     21 C           9.4187   39.7822    4.1409 C.3     1  UNL1        0.1895
     22 C           9.6582   37.9549    2.9305 C.3     1  UNL1        0.1743
     23 O           9.2515   39.2851    2.8480 O.3     1  UNL1       -0.3471
     24 C           1.3952   42.1370   12.6284 C.2     1  UNL1        0.2495
     25 O           0.8271   42.3940   11.5320 O.2     1  UNL1       -0.2698
     26 N           2.7528   41.6700   12.6561 N.am    1  UNL1       -0.2804
     27 H           3.1184   41.4300   13.5381 H       1  UNL1        0.1552
     28 C           0.6560   42.3079   13.8919 C.ar    1  UNL1        0.0539
     29 C          -0.5964   41.7023   14.0675 C.ar    1  UNL1        0.0076
     30 C          -1.2973   41.8609   15.2664 C.ar    1  UNL1        0.0370
     31 C          -0.7569   42.6259   16.3047 C.ar    1  UNL1        0.1387
     32 C           0.4970   43.2337   16.1323 C.ar    1  UNL1        0.0370
     33 C           1.1979   43.0745   14.9338 C.ar    1  UNL1        0.0076
     34 C          -1.0646   43.6145   18.5513 C.3     1  UNL1        0.2525
     35 O          -1.4822   42.7649   17.4913 O.3     1  UNL1       -0.4714
@<TRIPOS>BOND
     1    22    23    1
     2    21    23    1
     3    21    20    1
     4    20    19    1
     5     7    19    1
     6     7    11   ar
     7     8    12    1
     8    13    15   ar
     9    14    13    1
    10    16    17   ar
    11    18    12   ar
    12     2     3   ar
    13     4    26    1
    14     4     5   ar
    15    24    28    1
    16    29    30   ar
    17    31    35    1
    18    31    32   ar
    19    34    35    1
    20    33    28   ar
    21     6     1   ar
    22    10     9   ar
    23    10     8   ar
    24    10     1    1
    25    26    24   am
    26     7     9   ar
    27     8    11   ar
    28    12    13   ar
    29    15    16   ar
    30    17    18   ar
    31     1     2   ar
    32     3     4   ar
    33    24    25    2
    34    28    29   ar
    35    30    31   ar
    36    32    33   ar
    37     5     6   ar
    38    26    27    1
@<TRIPOS>MOLECULE
MolPort-016-948-775 ChemDiv-V004-5146 MCULE-2022708689 PubChem-46124577 ZINC000040372377 ZINC40372377
 35 38 0 0 0
SMALL
GASTEIGER

@<TRIPOS>ATOM
      1 C          10.8325   40.5806   11.4813 C.ar    1  UNL1        0.0847
      2 C          11.6277   40.6968   12.6305 C.ar    1  UNL1        0.0205
      3 C          11.0480   40.9906   13.8673 C.ar    1  UNL1        0.0162
      4 C           9.6629   41.1814   13.9738 C.ar    1  UNL1        0.0506
      5 C           8.8691   41.0770   12.8279 C.ar    1  UNL1        0.0162
      6 C           9.4489   40.7854   11.5905 C.ar    1  UNL1        0.0205
      7 C          12.9010   39.6921    8.7802 C.ar    1  UNL1        0.3384
      8 C          11.0453   40.6496    8.9648 C.ar    1  UNL1        0.1681
      9 N          12.6183   39.6944   10.0951 N.ar    1  UNL1       -0.1077
     10 N          11.4504   40.3032   10.2106 N.ar    1  UNL1       -0.2081
     11 N          11.9461   40.2842    8.0306 N.ar    1  UNL1       -0.1739
     12 C           9.7648   41.2915    8.6155 C.ar    1  UNL1        0.0321
     13 C           9.4879   42.6390    8.9354 C.ar    1  UNL1       -0.0189
     14 C          10.4698   43.4934    9.6649 C.3     1  UNL1        0.0311
     15 C           8.2487   43.1922    8.5960 C.ar    1  UNL1       -0.0042
     16 C           7.2811   42.4162    7.9533 C.ar    1  UNL1       -0.0003
     17 C           7.5446   41.0779    7.6546 C.ar    1  UNL1        0.0001
     18 C           8.7793   40.5171    7.9904 C.ar    1  UNL1        0.0027
     19 O          14.0665   39.1333    8.2579 O.3     1  UNL1       -0.4430
     20 C          14.6981   38.0209    8.8745 C.3     1  UNL1        0.2406
     21 C          14.8762   36.9029    7.8649 C.3     1  UNL1        0.1895
     22 C          13.5150   36.1673    9.4357 C.3     1  UNL1        0.1743
     23 O          14.2235   35.7529    8.3097 O.3     1  UNL1       -0.3471
     24 C           7.9506   42.3900   15.4548 C.2     1  UNL1        0.2495
     25 O           7.4056   42.9909   14.4890 O.2     1  UNL1       -0.2698
     26 N           9.0304   41.4710   15.2278 N.am    1  UNL1       -0.2804
     27 H           9.3723   40.9895   16.0155 H       1  UNL1        0.1552
     28 C           7.4683   42.6251   16.8274 C.ar    1  UNL1        0.0539
     29 C           6.5342   41.7561   17.4088 C.ar    1  UNL1        0.0076
     30 C           6.0781   41.9761   18.7116 C.ar    1  UNL1        0.0370
     31 C           6.5488   43.0662   19.4502 C.ar    1  UNL1        0.1387
     32 C           7.4843   43.9385   18.8711 C.ar    1  UNL1        0.0370
     33 C           7.9406   43.7180   17.5687 C.ar    1  UNL1        0.0076
     34 C           5.2451   42.3127   21.4128 C.3     1  UNL1        0.2525
     35 O           6.0737   43.2585   20.7504 O.3     1  UNL1       -0.4714
@<TRIPOS>BOND
     1    22    23    1
     2    21    23    1
     3    21    20    1
     4    20    19    1
     5     7    19    1
     6     7    11   ar
     7     8    12    1
     8    13    15   ar
     9    14    13    1
    10    16    17   ar
    11    18    12   ar
    12     2     3   ar
    13     4    26    1
    14     4     5   ar
    15    24    28    1
    16    29    30   ar
    17    31    35    1
    18    31    32   ar
    19    34    35    1
    20    33    28   ar
    21     6     1   ar
    22    10     9   ar
    23    10     8   ar
    24    10     1    1
    25    26    24   am
    26     7     9   ar
    27     8    11   ar
    28    12    13   ar
    29    15    16   ar
    30    17    18   ar
    31     1     2   ar
    32     3     4   ar
    33    24    25    2
    34    28    29   ar
    35    30    31   ar
    36    32    33   ar
    37     5     6   ar
    38    26    27    1
