@<TRIPOS>MOLECULE
MolPort-005-289-767 49938002 CSSS00160680064 ChemDiv-8020-2583 LN00787752 MCULE-7315426399 PubChem-16644481 ZINC000049938002
 22 23 0 0 0
SMALL
GASTEIGER

@<TRIPOS>ATOM
      1 C           9.1419   40.5800    6.0846 C.ar    1  UNL1        0.0396
      2 C           9.9005   40.1170    5.0137 C.ar    1  UNL1        0.0646
      3 C           9.3828   39.1726    3.9851 C.3     1  UNL1        0.0524
      4 C          11.4257   41.4300    5.9982 C.ar    1  UNL1        0.1652
      5 N          11.1734   40.5910    4.9681 N.ar    1  UNL1       -0.2286
      6 S          10.0923   41.6213    7.0042 S.2     1  UNL1       -0.0547
      7 C          13.6614   41.6871    7.1798 C.2     1  UNL1        0.2509
      8 N          12.6799   42.0839    6.2129 N.am    1  UNL1       -0.2606
      9 O          13.4555   40.6912    7.9261 O.2     1  UNL1       -0.2698
     10 H          12.8850   42.8673    5.6530 H       1  UNL1        0.1571
     11 C          14.9179   42.4472    7.3025 C.ar    1  UNL1        0.0537
     12 C          15.0913   43.6480    6.5986 C.ar    1  UNL1        0.0045
     13 C          16.2830   44.3699    6.7143 C.ar    1  UNL1        0.0001
     14 C          17.3101   43.8963    7.5350 C.ar    1  UNL1        0.0000
     15 C          17.1458   42.7009    8.2401 C.ar    1  UNL1        0.0001
     16 C          15.9542   41.9791    8.1244 C.ar    1  UNL1        0.0045
     17 C           7.7191   40.2314    6.3750 C.3     1  UNL1        0.1070
     18 N           7.0924   41.2871    7.1627 N.3     1  UNL1       -0.2685
     19 C           6.3648   43.6266    6.6206 C.3     1  UNL1        0.0188
     20 C           7.5024   42.6048    6.6563 C.3     1  UNL1        0.0724
     21 C           7.5213   41.1312    8.5468 C.3     1  UNL1        0.0724
     22 C           6.3512   41.3786    9.4791 C.3     1  UNL1        0.0188
@<TRIPOS>BOND
     1    19    20    1
     2    20    18    1
     3    21    18    1
     4    21    22    1
     5    17    18    1
     6    17     1    1
     7     1     6   ar
     8     2     5   ar
     9     3     2    1
    10     4     8    1
    11     4     6   ar
    12     7    11    1
    13    12    13   ar
    14    14    15   ar
    15    16    11   ar
    16     8     7   am
    17     1     2   ar
    18     4     5   ar
    19     7     9    2
    20    11    12   ar
    21    13    14   ar
    22    15    16   ar
    23     8    10    1
@<TRIPOS>MOLECULE
MolPort-005-289-767 49938002 CSSS00160680064 ChemDiv-8020-2583 LN00787752 MCULE-7315426399 PubChem-16644481 ZINC000049938002
 22 23 0 0 0
SMALL
GASTEIGER

@<TRIPOS>ATOM
      1 C          11.5610   39.8959    9.8721 C.ar    1  UNL1        0.0396
      2 C          11.4820   39.0275    8.7875 C.ar    1  UNL1        0.0646
      3 C          10.2260   38.7665    8.0312 C.3     1  UNL1        0.0524
      4 C          13.6567   38.8012    9.2764 C.ar    1  UNL1        0.1652
      5 N          12.6510   38.4174    8.4580 N.ar    1  UNL1       -0.2286
      6 S          13.1467   39.9061   10.4364 S.2     1  UNL1       -0.0547
      7 C          15.5752   37.2891    9.9792 C.2     1  UNL1        0.2509
      8 N          15.0023   38.3267    9.1724 N.am    1  UNL1       -0.2606
      9 O          14.8845   36.7153   10.8652 O.2     1  UNL1       -0.2698
     10 H          15.5800   38.7452    8.4939 H       1  UNL1        0.1571
     11 C          16.9787   36.8908    9.7722 C.ar    1  UNL1        0.0537
     12 C          17.9939   37.4278   10.5775 C.ar    1  UNL1        0.0045
     13 C          19.3258   37.0506   10.3819 C.ar    1  UNL1        0.0001
     14 C          19.6524   36.1333    9.3797 C.ar    1  UNL1        0.0000
     15 C          18.6474   35.5930    8.5728 C.ar    1  UNL1        0.0001
     16 C          17.3155   35.9702    8.7683 C.ar    1  UNL1        0.0045
     17 C          10.4396   40.7005   10.4425 C.3     1  UNL1        0.1070
     18 N          10.0768   41.7779    9.5284 N.3     1  UNL1       -0.2685
     19 C          11.9388   42.6749    8.1054 C.3     1  UNL1        0.0188
     20 C          11.1775   42.7474    9.4300 C.3     1  UNL1        0.0724
     21 C           8.8845   42.4314   10.0532 C.3     1  UNL1        0.0724
     22 C           9.2476   43.7946   10.6095 C.3     1  UNL1        0.0188
@<TRIPOS>BOND
     1    19    20    1
     2    20    18    1
     3    21    18    1
     4    21    22    1
     5    17    18    1
     6    17     1    1
     7     1     6   ar
     8     2     5   ar
     9     3     2    1
    10     4     8    1
    11     4     6   ar
    12     7    11    1
    13    12    13   ar
    14    14    15   ar
    15    16    11   ar
    16     8     7   am
    17     1     2   ar
    18     4     5   ar
    19     7     9    2
    20    11    12   ar
    21    13    14   ar
    22    15    16   ar
    23     8    10    1
@<TRIPOS>MOLECULE
MolPort-005-289-767 49938002 CSSS00160680064 ChemDiv-8020-2583 LN00787752 MCULE-7315426399 PubChem-16644481 ZINC000049938002
 22 23 0 0 0
SMALL
GASTEIGER

@<TRIPOS>ATOM
      1 C          10.0743   39.9100    7.7731 C.ar    1  UNL1        0.0396
      2 C          10.8855   38.9590    8.3850 C.ar    1  UNL1        0.0646
      3 C          10.3635   37.7174    9.0204 C.3     1  UNL1        0.0524
      4 C          12.4589   40.4181    7.7409 C.ar    1  UNL1        0.1652
      5 N          12.2141   39.2448    8.3671 N.ar    1  UNL1       -0.2286
      6 S          11.0505   41.1486    7.1849 S.2     1  UNL1       -0.0547
      7 C          14.0458   42.3751    7.4054 C.2     1  UNL1        0.2509
      8 N          13.7636   40.9787    7.5670 N.am    1  UNL1       -0.2606
      9 O          13.1090   43.2199    7.4088 O.2     1  UNL1       -0.2698
     10 H          14.5271   40.3573    7.5576 H       1  UNL1        0.1571
     11 C          15.4382   42.8260    7.2341 C.ar    1  UNL1        0.0537
     12 C          15.7737   43.7136    6.2011 C.ar    1  UNL1        0.0045
     13 C          17.0945   44.1420    6.0378 C.ar    1  UNL1        0.0001
     14 C          18.0896   43.6860    6.9064 C.ar    1  UNL1        0.0000
     15 C          17.7643   42.8016    7.9384 C.ar    1  UNL1        0.0001
     16 C          16.4436   42.3732    8.1018 C.ar    1  UNL1        0.0045
     17 C           8.5880   39.8492    7.6409 C.3     1  UNL1        0.1070
     18 N           8.2196   39.1656    6.4060 N.3     1  UNL1       -0.2685
     19 C           9.4224   38.6909    4.2556 C.3     1  UNL1        0.0188
     20 C           8.9626   39.7362    5.2731 C.3     1  UNL1        0.0724
     21 C           6.7878   39.3448    6.2020 C.3     1  UNL1        0.0724
     22 C           6.2873   40.4973    7.0509 C.3     1  UNL1        0.0188
@<TRIPOS>BOND
     1    19    20    1
     2    20    18    1
     3    21    18    1
     4    21    22    1
     5    17    18    1
     6    17     1    1
     7     1     6   ar
     8     2     5   ar
     9     3     2    1
    10     4     8    1
    11     4     6   ar
    12     7    11    1
    13    12    13   ar
    14    14    15   ar
    15    16    11   ar
    16     8     7   am
    17     1     2   ar
    18     4     5   ar
    19     7     9    2
    20    11    12   ar
    21    13    14   ar
    22    15    16   ar
    23     8    10    1
@<TRIPOS>MOLECULE
MolPort-005-289-767 49938002 CSSS00160680064 ChemDiv-8020-2583 LN00787752 MCULE-7315426399 PubChem-16644481 ZINC000049938002
 22 23 0 0 0
SMALL
GASTEIGER

@<TRIPOS>ATOM
      1 C          11.1654   41.5926    8.8893 C.ar    1  UNL1        0.0396
      2 C          10.9051   40.8543   10.0399 C.ar    1  UNL1        0.0646
      3 C          11.9694   40.2610   10.8961 C.3     1  UNL1        0.0524
      4 C           8.8022   41.3233    9.4257 C.ar    1  UNL1        0.1652
      5 N           9.5873   40.7044   10.3363 N.ar    1  UNL1       -0.2286
      6 S           9.6991   42.0792    8.2213 S.2     1  UNL1       -0.0547
      7 C           6.5915   41.6077   10.6475 C.2     1  UNL1        0.2509
      8 N           7.3725   41.3382    9.4757 N.am    1  UNL1       -0.2606
      9 O           7.1567   41.8574   11.7473 O.2     1  UNL1       -0.2698
     10 H           6.8871   41.1486    8.6405 H       1  UNL1        0.1571
     11 C           5.1202   41.5928   10.5667 C.ar    1  UNL1        0.0537
     12 C           4.3458   41.9672   11.6746 C.ar    1  UNL1        0.0045
     13 C           2.9498   41.9534   11.5989 C.ar    1  UNL1        0.0001
     14 C           2.3179   41.5651   10.4146 C.ar    1  UNL1        0.0000
     15 C           3.0817   41.1907    9.3057 C.ar    1  UNL1        0.0001
     16 C           4.4776   41.2045    9.3813 C.ar    1  UNL1        0.0045
     17 C          12.5135   41.9182    8.3352 C.3     1  UNL1        0.1070
     18 N          12.4107   42.2398    6.9161 N.3     1  UNL1       -0.2685
     19 C          12.2978   39.7332    6.9353 C.3     1  UNL1        0.0188
     20 C          12.0964   41.0277    6.1461 C.3     1  UNL1        0.0724
     21 C          13.6914   42.7849    6.4840 C.3     1  UNL1        0.0724
     22 C          14.8005   42.2623    7.3763 C.3     1  UNL1        0.0188
@<TRIPOS>BOND
     1    19    20    1
     2    20    18    1
     3    21    18    1
     4    21    22    1
     5    17    18    1
     6    17     1    1
     7     1     6   ar
     8     2     5   ar
     9     3     2    1
    10     4     8    1
    11     4     6   ar
    12     7    11    1
    13    12    13   ar
    14    14    15   ar
    15    16    11   ar
    16     8     7   am
    17     1     2   ar
    18     4     5   ar
    19     7     9    2
    20    11    12   ar
    21    13    14   ar
    22    15    16   ar
    23     8    10    1
@<TRIPOS>MOLECULE
MolPort-005-289-767 49938002 CSSS00160680064 ChemDiv-8020-2583 LN00787752 MCULE-7315426399 PubChem-16644481 ZINC000049938002
 22 23 0 0 0
SMALL
GASTEIGER

@<TRIPOS>ATOM
      1 C           9.1501   41.3145    8.9223 C.ar    1  UNL1        0.0396
      2 C           9.6588   40.3523    8.0550 C.ar    1  UNL1        0.0646
      3 C           8.8368   39.2616    7.4613 C.3     1  UNL1        0.0524
      4 C          11.5278   41.5304    8.4270 C.ar    1  UNL1        0.1652
      5 N          10.9845   40.4737    7.7813 N.ar    1  UNL1       -0.2286
      6 S          10.3981   42.3562    9.3589 S.2     1  UNL1       -0.0547
      7 C          13.5798   42.2627    7.1178 C.2     1  UNL1        0.2509
      8 N          12.9042   41.9087    8.3319 N.am    1  UNL1       -0.2606
      9 O          12.9609   42.2574    6.0186 O.2     1  UNL1       -0.2698
     10 H          13.4285   41.9273    9.1650 H       1  UNL1        0.1571
     11 C          15.0051   42.6349    7.1543 C.ar    1  UNL1        0.0537
     12 C          15.5087   43.5989    6.2686 C.ar    1  UNL1        0.0045
     13 C          16.8608   43.9527    6.3024 C.ar    1  UNL1        0.0001
     14 C          17.7195   43.3451    7.2224 C.ar    1  UNL1        0.0000
     15 C          17.2262   42.3837    8.1087 C.ar    1  UNL1        0.0001
     16 C          15.8742   42.0299    8.0750 C.ar    1  UNL1        0.0045
     17 C           7.7349   41.4253    9.3860 C.3     1  UNL1        0.1070
     18 N           6.8463   41.6315    8.2477 N.3     1  UNL1       -0.2685
     19 C           6.9493   43.1799    6.2758 C.3     1  UNL1        0.0188
     20 C           6.9198   43.0290    7.7975 C.3     1  UNL1        0.0724
     21 C           5.4885   41.3174    8.6736 C.3     1  UNL1        0.0724
     22 C           4.8565   42.5359    9.3180 C.3     1  UNL1        0.0188
@<TRIPOS>BOND
     1    19    20    1
     2    20    18    1
     3    21    18    1
     4    21    22    1
     5    17    18    1
     6    17     1    1
     7     1     6   ar
     8     2     5   ar
     9     3     2    1
    10     4     8    1
    11     4     6   ar
    12     7    11    1
    13    12    13   ar
    14    14    15   ar
    15    16    11   ar
    16     8     7   am
    17     1     2   ar
    18     4     5   ar
    19     7     9    2
    20    11    12   ar
    21    13    14   ar
    22    15    16   ar
    23     8    10    1
@<TRIPOS>MOLECULE
MolPort-005-289-767 49938002 CSSS00160680064 ChemDiv-8020-2583 LN00787752 MCULE-7315426399 PubChem-16644481 ZINC000049938002
 22 23 0 0 0
SMALL
GASTEIGER

@<TRIPOS>ATOM
      1 C          11.7155   40.9257    9.2862 C.ar    1  UNL1        0.0396
      2 C          11.2904   41.1957    7.9888 C.ar    1  UNL1        0.0646
      3 C          12.2191   41.3761    6.8386 C.3     1  UNL1        0.0524
      4 C           9.2986   41.0914    9.0092 C.ar    1  UNL1        0.1652
      5 N           9.9431   41.2889    7.8369 N.ar    1  UNL1       -0.2286
      6 S          10.3615   40.7940   10.2774 S.2     1  UNL1       -0.0547
      7 C           7.1788   41.7551   10.2448 C.2     1  UNL1        0.2509
      8 N           7.8765   41.1286    9.1601 N.am    1  UNL1       -0.2606
      9 O           7.8185   42.3333   11.1655 O.2     1  UNL1       -0.2698
     10 H           7.3346   40.6899    8.4651 H       1  UNL1        0.1571
     11 C           5.7061   41.7233   10.2842 C.ar    1  UNL1        0.0537
     12 C           5.0388   41.1285   11.3651 C.ar    1  UNL1        0.0045
     13 C           3.6416   41.0979   11.4035 C.ar    1  UNL1        0.0001
     14 C           2.9013   41.6619   10.3612 C.ar    1  UNL1        0.0000
     15 C           3.5578   42.2568    9.2804 C.ar    1  UNL1        0.0001
     16 C           4.9550   42.2875    9.2420 C.ar    1  UNL1        0.0045
     17 C          13.1303   40.7640    9.7361 C.3     1  UNL1        0.1070
     18 N          13.5533   39.3768    9.5794 N.3     1  UNL1       -0.2685
     19 C          14.3632   38.7633   11.8738 C.3     1  UNL1        0.0188
     20 C          13.2735   38.6224   10.8098 C.3     1  UNL1        0.0724
     21 C          14.9850   39.3705    9.3075 C.3     1  UNL1        0.0724
     22 C          15.4455   40.7683    8.9422 C.3     1  UNL1        0.0188
@<TRIPOS>BOND
     1    19    20    1
     2    20    18    1
     3    21    18    1
     4    21    22    1
     5    17    18    1
     6    17     1    1
     7     1     6   ar
     8     2     5   ar
     9     3     2    1
    10     4     8    1
    11     4     6   ar
    12     7    11    1
    13    12    13   ar
    14    14    15   ar
    15    16    11   ar
    16     8     7   am
    17     1     2   ar
    18     4     5   ar
    19     7     9    2
    20    11    12   ar
    21    13    14   ar
    22    15    16   ar
    23     8    10    1
@<TRIPOS>MOLECULE
MolPort-005-289-767 49938002 CSSS00160680064 ChemDiv-8020-2583 LN00787752 MCULE-7315426399 PubChem-16644481 ZINC000049938002
 22 23 0 0 0
SMALL
GASTEIGER

@<TRIPOS>ATOM
      1 C           8.4140   42.5574    8.2525 C.ar    1  UNL1        0.0396
      2 C           8.8870   43.4278    9.2300 C.ar    1  UNL1        0.0646
      3 C           8.2801   44.7583    9.5115 C.3     1  UNL1        0.0524
      4 C          10.3453   41.7489    9.5021 C.ar    1  UNL1        0.1652
      5 N           9.9643   42.9757    9.9244 N.ar    1  UNL1       -0.2286
      6 S           9.3713   41.1730    8.2586 S.2     1  UNL1       -0.0547
      7 C          12.7642   40.9683    9.4793 C.2     1  UNL1        0.2509
      8 N          11.4485   41.0187   10.0467 N.am    1  UNL1       -0.2606
      9 O          13.0256   41.5977    8.4177 O.2     1  UNL1       -0.2698
     10 H          11.2920   40.5114   10.8758 H       1  UNL1        0.1571
     11 C          13.8170   40.1766   10.1397 C.ar    1  UNL1        0.0537
     12 C          15.1115   40.1302    9.6018 C.ar    1  UNL1        0.0045
     13 C          16.1111   39.3794   10.2277 C.ar    1  UNL1        0.0001
     14 C          15.8235   38.6694   11.3964 C.ar    1  UNL1        0.0000
     15 C          14.5364   38.7100   11.9395 C.ar    1  UNL1        0.0001
     16 C          13.5369   39.4608   11.3137 C.ar    1  UNL1        0.0045
     17 C           7.2466   42.7923    7.3512 C.3     1  UNL1        0.1070
     18 N           6.1297   41.9385    7.7405 N.3     1  UNL1       -0.2685
     19 C           4.6442   43.4214    9.1156 C.3     1  UNL1        0.0188
     20 C           5.6737   42.2905    9.0930 C.3     1  UNL1        0.0724
     21 C           6.5897   40.5559    7.7155 C.3     1  UNL1        0.0724
     22 C           6.3646   39.9636    6.3379 C.3     1  UNL1        0.0188
@<TRIPOS>BOND
     1    19    20    1
     2    20    18    1
     3    21    18    1
     4    21    22    1
     5    17    18    1
     6    17     1    1
     7     1     6   ar
     8     2     5   ar
     9     3     2    1
    10     4     8    1
    11     4     6   ar
    12     7    11    1
    13    12    13   ar
    14    14    15   ar
    15    16    11   ar
    16     8     7   am
    17     1     2   ar
    18     4     5   ar
    19     7     9    2
    20    11    12   ar
    21    13    14   ar
    22    15    16   ar
    23     8    10    1
@<TRIPOS>MOLECULE
MolPort-005-289-767 49938002 CSSS00160680064 ChemDiv-8020-2583 LN00787752 MCULE-7315426399 PubChem-16644481 ZINC000049938002
 22 23 0 0 0
SMALL
GASTEIGER

@<TRIPOS>ATOM
      1 C           8.0771   41.3198    8.2950 C.ar    1  UNL1        0.0396
      2 C           8.3514   40.6838    7.0878 C.ar    1  UNL1        0.0646
      3 C           7.4361   39.6972    6.4502 C.3     1  UNL1        0.0524
      4 C          10.2011   41.9351    7.2676 C.ar    1  UNL1        0.1652
      5 N           9.5362   41.0273    6.5176 N.ar    1  UNL1       -0.2286
      6 S           9.3566   42.3505    8.6607 S.2     1  UNL1       -0.0547
      7 C          12.7428   41.9127    7.2740 C.2     1  UNL1        0.2509
      8 N          11.4760   42.4840    6.9212 N.am    1  UNL1       -0.2606
      9 O          12.7967   40.8435    7.9413 O.2     1  UNL1       -0.2698
     10 H          11.4841   43.3191    6.3998 H       1  UNL1        0.1571
     11 C          13.9889   42.5783    6.8548 C.ar    1  UNL1        0.0537
     12 C          15.1849   42.3455    7.5495 C.ar    1  UNL1        0.0045
     13 C          16.3677   42.9765    7.1526 C.ar    1  UNL1        0.0001
     14 C          16.3631   43.8450    6.0579 C.ar    1  UNL1        0.0000
     15 C          15.1760   44.0826    5.3598 C.ar    1  UNL1        0.0001
     16 C          13.9933   43.4516    5.7566 C.ar    1  UNL1        0.0045
     17 C           6.8523   41.1388    9.1300 C.3     1  UNL1        0.1070
     18 N           5.7268   41.8505    8.5346 N.3     1  UNL1       -0.2685
     19 C           6.0492   44.1563    7.5988 C.3     1  UNL1        0.0188
     20 C           5.8220   43.2862    8.8359 C.3     1  UNL1        0.0724
     21 C           4.4992   41.3047    9.0992 C.3     1  UNL1        0.0724
     22 C           3.4967   42.4196    9.3256 C.3     1  UNL1        0.0188
@<TRIPOS>BOND
     1    19    20    1
     2    20    18    1
     3    21    18    1
     4    21    22    1
     5    17    18    1
     6    17     1    1
     7     1     6   ar
     8     2     5   ar
     9     3     2    1
    10     4     8    1
    11     4     6   ar
    12     7    11    1
    13    12    13   ar
    14    14    15   ar
    15    16    11   ar
    16     8     7   am
    17     1     2   ar
    18     4     5   ar
    19     7     9    2
    20    11    12   ar
    21    13    14   ar
    22    15    16   ar
    23     8    10    1
@<TRIPOS>MOLECULE
MolPort-005-289-767 49938002 CSSS00160680064 ChemDiv-8020-2583 LN00787752 MCULE-7315426399 PubChem-16644481 ZINC000049938002
 22 23 0 0 0
SMALL
GASTEIGER

@<TRIPOS>ATOM
      1 C          12.3018   40.6634    8.6304 C.ar    1  UNL1        0.0396
      2 C          11.7269   40.5659    9.8941 C.ar    1  UNL1        0.0646
      3 C          12.4435   40.0334   11.0860 C.3     1  UNL1        0.0524
      4 C           9.9930   41.4347    8.7723 C.ar    1  UNL1        0.1652
      5 N          10.4397   40.9951    9.9706 N.ar    1  UNL1       -0.2286
      6 S          11.1647   41.3126    7.5728 S.2     1  UNL1       -0.0547
      7 C           8.1691   43.1794    9.0723 C.2     1  UNL1        0.2509
      8 N           8.6768   41.9468    8.5444 N.am    1  UNL1       -0.2606
      9 O           8.8962   43.9090    9.8005 O.2     1  UNL1       -0.2698
     10 H           8.0725   41.4112    7.9812 H       1  UNL1        0.1571
     11 C           6.7902   43.5963    8.7623 C.ar    1  UNL1        0.0537
     12 C           5.7018   42.9527    9.3696 C.ar    1  UNL1        0.0045
     13 C           4.3931   43.3475    9.0762 C.ar    1  UNL1        0.0001
     14 C           4.1631   44.3890    8.1734 C.ar    1  UNL1        0.0000
     15 C           5.2415   45.0360    7.5638 C.ar    1  UNL1        0.0001
     16 C           6.5501   44.6413    7.8572 C.ar    1  UNL1        0.0045
     17 C          13.6957   40.2742    8.2621 C.3     1  UNL1        0.1070
     18 N          14.6540   41.1715    8.8980 N.3     1  UNL1       -0.2685
     19 C          14.6948   43.0896    7.2806 C.3     1  UNL1        0.0188
     20 C          15.4299   41.8872    7.8748 C.3     1  UNL1        0.0724
     21 C          15.5447   40.3669    9.7244 C.3     1  UNL1        0.0724
     22 C          16.9720   40.5096    9.2326 C.3     1  UNL1        0.0188
@<TRIPOS>BOND
     1    19    20    1
     2    20    18    1
     3    21    18    1
     4    21    22    1
     5    17    18    1
     6    17     1    1
     7     1     6   ar
     8     2     5   ar
     9     3     2    1
    10     4     8    1
    11     4     6   ar
    12     7    11    1
    13    12    13   ar
    14    14    15   ar
    15    16    11   ar
    16     8     7   am
    17     1     2   ar
    18     4     5   ar
    19     7     9    2
    20    11    12   ar
    21    13    14   ar
    22    15    16   ar
    23     8    10    1
@<TRIPOS>MOLECULE
MolPort-005-289-767 49938002 CSSS00160680064 ChemDiv-8020-2583 LN00787752 MCULE-7315426399 PubChem-16644481 ZINC000049938002
 22 23 0 0 0
SMALL
GASTEIGER

@<TRIPOS>ATOM
      1 C          11.6825   41.5053    9.3748 C.ar    1  UNL1        0.0396
      2 C          11.4850   40.6920   10.4868 C.ar    1  UNL1        0.0646
      3 C          12.5656   39.8867   11.1205 C.3     1  UNL1        0.0524
      4 C           9.4023   41.4794   10.2382 C.ar    1  UNL1        0.1652
      5 N          10.2131   40.6781   10.9656 N.ar    1  UNL1       -0.2286
      6 S          10.2190   42.2362    8.9785 S.2     1  UNL1       -0.0547
      7 C           6.9454   41.3342    9.6032 C.2     1  UNL1        0.2509
      8 N           8.0093   41.6672   10.5047 N.am    1  UNL1       -0.2606
      9 O           7.1997   40.8340    8.4734 O.2     1  UNL1       -0.2698
     10 H           7.7620   42.0553   11.3751 H       1  UNL1        0.1571
     11 C           5.5469   41.5779    9.9985 C.ar    1  UNL1        0.0537
     12 C           4.6588   42.2048    9.1122 C.ar    1  UNL1        0.0045
     13 C           3.3318   42.4363    9.4863 C.ar    1  UNL1        0.0001
     14 C           2.8830   42.0426   10.7497 C.ar    1  UNL1        0.0000
     15 C           3.7609   41.4172   11.6392 C.ar    1  UNL1        0.0001
     16 C           5.0879   41.1856   11.2651 C.ar    1  UNL1        0.0045
     17 C          12.9725   41.7150    8.6522 C.3     1  UNL1        0.1070
     18 N          12.9511   41.0185    7.3707 N.3     1  UNL1       -0.2685
     19 C          13.6008   43.1663    6.2478 C.3     1  UNL1        0.0188
     20 C          12.6536   41.9661    6.2869 C.3     1  UNL1        0.0724
     21 C          11.9168   39.9936    7.4323 C.3     1  UNL1        0.0724
     22 C          11.2818   39.8205    6.0662 C.3     1  UNL1        0.0188
@<TRIPOS>BOND
     1    19    20    1
     2    20    18    1
     3    21    18    1
     4    21    22    1
     5    17    18    1
     6    17     1    1
     7     1     6   ar
     8     2     5   ar
     9     3     2    1
    10     4     8    1
    11     4     6   ar
    12     7    11    1
    13    12    13   ar
    14    14    15   ar
    15    16    11   ar
    16     8     7   am
    17     1     2   ar
    18     4     5   ar
    19     7     9    2
    20    11    12   ar
    21    13    14   ar
    22    15    16   ar
    23     8    10    1
