@<TRIPOS>MOLECULE
MolPort-039-120-590 CSSS00160134734 MCULE-9974437556 PubChem-118789298
 25 27 0 0 0
SMALL
GASTEIGER

@<TRIPOS>ATOM
      1 O          11.5055   41.8003    9.1370 O.2     1  UNL1       -0.2525
      2 C          11.2014   40.5788    9.2109 C.2     1  UNL1        0.3047
      3 N          12.1105   39.6492    9.8028 N.am    1  UNL1       -0.2848
      4 N           9.9500   40.0988    8.7032 N.am    1  UNL1       -0.2682
      5 H          11.8607   38.6973    9.8301 H       1  UNL1        0.1513
      6 H           9.7814   39.1326    8.7884 H       1  UNL1        0.1564
      7 O          16.2677   38.8191   12.2997 O.2     1  UNL1       -0.1685
      8 O          14.9832   36.8935   11.3942 O.2     1  UNL1       -0.1685
      9 C          13.3907   40.0507   10.3673 C.3     1  UNL1        0.1206
     10 C          13.6743   39.2518   11.6457 C.3     1  UNL1        0.1800
     11 C          15.4510   38.9598    9.7469 C.2     1  UNL1        0.1199
     12 C          14.4846   39.7864    9.3659 C.2     1  UNL1        0.0145
     13 S          15.1850   38.3815   11.3546 S.O2    1  UNL1        0.0116
     14 C           8.9177   40.8785    8.0840 C.ar    1  UNL1        0.0546
     15 C           7.6319   40.8506    8.6351 C.ar    1  UNL1        0.0516
     16 C           6.5931   41.5943    8.0657 C.ar    1  UNL1        0.1396
     17 C           6.8492   42.3783    6.9297 C.ar    1  UNL1        0.0370
     18 C           8.1297   42.4125    6.3729 C.ar    1  UNL1        0.0044
     19 C           9.1603   41.6652    6.9480 C.ar    1  UNL1        0.0149
     20 O           5.3228   41.5397    8.6496 O.3     1  UNL1       -0.4791
     21 C           5.0077   42.1611    9.8912 C.3     1  UNL1        0.1659
     22 C           5.1272   41.1444   11.0128 C.3     1  UNL1        0.0435
     23 C           3.7274   40.9151   11.5414 C.3     1  UNL1        0.0038
     24 C           2.9540   42.1596   11.1795 C.3     1  UNL1        0.0038
     25 C           3.5646   42.6390    9.8827 C.3     1  UNL1        0.0435
@<TRIPOS>BOND
     1     2     3   am
     2     2     4   am
     3     9     3    1
     4     9    10    1
     5     9    12    1
     6    10    13    1
     7    15    16   ar
     8    16    20    1
     9    21    20    1
    10    21    22    1
    11    22    23    1
    12    23    24    1
    13    24    25    1
    14    25    21    1
    15    17    18   ar
    16    19    14   ar
    17     4    14    1
    18    13    11    1
    19     2     1    2
    20    11    12    2
    21    14    15   ar
    22    16    17   ar
    23    18    19   ar
    24    13     7    2
    25    13     8    2
    26     3     5    1
    27     4     6    1
@<TRIPOS>MOLECULE
MolPort-039-120-590 CSSS00160134734 MCULE-9974437556 PubChem-118789298
 25 27 0 0 0
SMALL
GASTEIGER

@<TRIPOS>ATOM
      1 O          12.7752   41.4269    8.0708 O.2     1  UNL1       -0.2525
      2 C          12.6510   42.0640    6.9897 C.2     1  UNL1        0.3047
      3 N          11.4133   42.0305    6.2770 N.am    1  UNL1       -0.2848
      4 N          13.7405   42.8257    6.4540 N.am    1  UNL1       -0.2682
      5 H          11.3467   42.5182    5.4243 H       1  UNL1        0.1513
      6 H          13.5752   43.2928    5.6032 H       1  UNL1        0.1564
      7 O           7.3102   39.3897    5.6475 O.2     1  UNL1       -0.1685
      8 O           8.9560   39.5478    3.7917 O.2     1  UNL1       -0.1685
      9 C          10.2468   41.3054    6.7588 C.3     1  UNL1        0.1206
     10 C           9.1019   41.4198    5.7443 C.3     1  UNL1        0.1800
     11 C           9.8951   38.9758    6.2397 C.2     1  UNL1        0.1199
     12 C          10.6009   39.8529    6.9433 C.2     1  UNL1        0.0145
     13 S           8.7114   39.7660    5.2577 S.O2    1  UNL1        0.0116
     14 C          15.0462   42.9790    7.0273 C.ar    1  UNL1        0.0546
     15 C          15.5988   41.9074    7.7372 C.ar    1  UNL1        0.0516
     16 C          16.8688   42.0103    8.3141 C.ar    1  UNL1        0.1396
     17 C          17.5945   43.2039    8.1743 C.ar    1  UNL1        0.0370
     18 C          17.0510   44.2787    7.4671 C.ar    1  UNL1        0.0044
     19 C          15.7812   44.1666    6.8957 C.ar    1  UNL1        0.0149
     20 O          17.3851   40.9142    9.0138 O.3     1  UNL1       -0.4791
     21 C          16.7071   40.2932   10.1008 C.3     1  UNL1        0.1659
     22 C          17.6282   39.2848   10.7646 C.3     1  UNL1        0.0435
     23 C          17.0401   37.9165   10.4944 C.3     1  UNL1        0.0038
     24 C          15.5722   38.1552   10.2374 C.3     1  UNL1        0.0038
     25 C          15.5031   39.5187    9.5891 C.3     1  UNL1        0.0435
@<TRIPOS>BOND
     1     2     3   am
     2     2     4   am
     3     9     3    1
     4     9    10    1
     5     9    12    1
     6    10    13    1
     7    15    16   ar
     8    16    20    1
     9    21    20    1
    10    21    22    1
    11    22    23    1
    12    23    24    1
    13    24    25    1
    14    25    21    1
    15    17    18   ar
    16    19    14   ar
    17     4    14    1
    18    13    11    1
    19     2     1    2
    20    11    12    2
    21    14    15   ar
    22    16    17   ar
    23    18    19   ar
    24    13     7    2
    25    13     8    2
    26     3     5    1
    27     4     6    1
@<TRIPOS>MOLECULE
MolPort-039-120-590 CSSS00160134734 MCULE-9974437556 PubChem-118789298
 25 27 0 0 0
SMALL
GASTEIGER

@<TRIPOS>ATOM
      1 O          10.8285   42.6007   10.0545 O.2     1  UNL1       -0.2525
      2 C          10.4588   41.3952   10.0643 C.2     1  UNL1        0.3047
      3 N           9.0933   41.0672   10.3264 N.am    1  UNL1       -0.2848
      4 N          11.3927   40.3360    9.8195 N.am    1  UNL1       -0.2682
      5 H           8.8323   40.1182   10.3501 H       1  UNL1        0.1513
      6 H          11.0363   39.4188    9.8488 H       1  UNL1        0.1564
      7 O           4.7958   43.2713    9.3886 O.2     1  UNL1       -0.1685
      8 O           5.1888   40.9615    8.5591 O.2     1  UNL1       -0.1685
      9 C           8.0717   42.0775   10.5597 C.3     1  UNL1        0.1206
     10 C           7.3649   42.4230    9.2429 C.3     1  UNL1        0.1800
     11 C           5.8015   41.4833   11.1193 C.2     1  UNL1        0.1199
     12 C           7.0586   41.5482   11.5409 C.2     1  UNL1        0.0145
     13 S           5.6561   42.0440    9.4900 S.O2    1  UNL1        0.0116
     14 C          12.7921   40.4722    9.5363 C.ar    1  UNL1        0.0546
     15 C          13.1826   41.2222    8.4216 C.ar    1  UNL1        0.0516
     16 C          14.5357   41.3827    8.1054 C.ar    1  UNL1        0.1396
     17 C          15.5095   40.7843    8.9207 C.ar    1  UNL1        0.0370
     18 C          15.1289   40.0341   10.0356 C.ar    1  UNL1        0.0044
     19 C          13.7749   39.8785   10.3423 C.ar    1  UNL1        0.0149
     20 O          14.8830   42.1424    6.9831 O.3     1  UNL1       -0.4791
     21 C          15.4686   43.4373    7.0685 C.3     1  UNL1        0.1659
     22 C          15.8596   43.9106    5.6796 C.3     1  UNL1        0.0435
     23 C          17.3720   43.9660    5.6500 C.3     1  UNL1        0.0038
     24 C          17.7953   44.1179    7.0906 C.3     1  UNL1        0.0038
     25 C          16.7471   43.3772    7.8888 C.3     1  UNL1        0.0435
@<TRIPOS>BOND
     1     2     3   am
     2     2     4   am
     3     9     3    1
     4     9    10    1
     5     9    12    1
     6    10    13    1
     7    15    16   ar
     8    16    20    1
     9    21    20    1
    10    21    22    1
    11    22    23    1
    12    23    24    1
    13    24    25    1
    14    25    21    1
    15    17    18   ar
    16    19    14   ar
    17     4    14    1
    18    13    11    1
    19     2     1    2
    20    11    12    2
    21    14    15   ar
    22    16    17   ar
    23    18    19   ar
    24    13     7    2
    25    13     8    2
    26     3     5    1
    27     4     6    1
@<TRIPOS>MOLECULE
MolPort-039-120-590 CSSS00160134734 MCULE-9974437556 PubChem-118789298
 25 27 0 0 0
SMALL
GASTEIGER

@<TRIPOS>ATOM
      1 O           8.5844   41.7945   11.1173 O.2     1  UNL1       -0.2525
      2 C           8.1783   41.3265   10.0191 C.2     1  UNL1        0.3047
      3 N           6.7796   41.2872    9.7311 N.am    1  UNL1       -0.2848
      4 N           9.1022   40.8239    9.0455 N.am    1  UNL1       -0.2682
      5 H           6.4848   40.8978    8.8763 H       1  UNL1        0.1513
      6 H           8.7150   40.4676    8.2134 H       1  UNL1        0.1564
      7 O           2.1829   42.5405   10.9581 O.2     1  UNL1       -0.1685
      8 O           2.5592   41.0241    9.0251 O.2     1  UNL1       -0.1685
      9 C           5.7721   41.7987   10.6487 C.3     1  UNL1        0.1206
     10 C           4.6620   42.5108    9.8653 C.3     1  UNL1        0.1800
     11 C           3.8638   40.4772   11.3057 C.2     1  UNL1        0.1199
     12 C           5.1740   40.6544   11.4246 C.2     1  UNL1        0.0145
     13 S           3.1647   41.6527   10.2477 S.O2    1  UNL1        0.0116
     14 C          10.5316   40.7856    9.1563 C.ar    1  UNL1        0.0546
     15 C          11.3014   41.2970    8.1058 C.ar    1  UNL1        0.0516
     16 C          12.6986   41.2810    8.1688 C.ar    1  UNL1        0.1396
     17 C          13.3312   40.7468    9.3026 C.ar    1  UNL1        0.0370
     18 C          12.5708   40.2344   10.3562 C.ar    1  UNL1        0.0044
     19 C          11.1759   40.2537   10.2832 C.ar    1  UNL1        0.0149
     20 O          13.4304   41.8043    7.0974 O.3     1  UNL1       -0.4791
     21 C          14.0710   43.0752    7.1372 C.3     1  UNL1        0.1659
     22 C          13.7950   43.8239    5.8451 C.3     1  UNL1        0.0435
     23 C          15.1168   43.9319    5.1155 C.3     1  UNL1        0.0038
     24 C          16.1752   43.8115    6.1846 C.3     1  UNL1        0.0038
     25 C          15.5779   42.8959    7.2283 C.3     1  UNL1        0.0435
@<TRIPOS>BOND
     1     2     3   am
     2     2     4   am
     3     9     3    1
     4     9    10    1
     5     9    12    1
     6    10    13    1
     7    15    16   ar
     8    16    20    1
     9    21    20    1
    10    21    22    1
    11    22    23    1
    12    23    24    1
    13    24    25    1
    14    25    21    1
    15    17    18   ar
    16    19    14   ar
    17     4    14    1
    18    13    11    1
    19     2     1    2
    20    11    12    2
    21    14    15   ar
    22    16    17   ar
    23    18    19   ar
    24    13     7    2
    25    13     8    2
    26     3     5    1
    27     4     6    1
@<TRIPOS>MOLECULE
MolPort-039-120-590 CSSS00160134734 MCULE-9974437556 PubChem-118789298
 25 27 0 0 0
SMALL
GASTEIGER

@<TRIPOS>ATOM
      1 O           8.4918   41.6867   10.4161 O.2     1  UNL1       -0.2525
      2 C           7.9591   41.4999    9.2885 C.2     1  UNL1        0.3047
      3 N           6.5435   41.6192    9.1369 N.am    1  UNL1       -0.2848
      4 N           8.7539   41.1623    8.1448 N.am    1  UNL1       -0.2682
      5 H           6.1478   41.4479    8.2518 H       1  UNL1        0.1513
      6 H           8.2712   41.0244    7.2979 H       1  UNL1        0.1564
      7 O           2.1289   42.4773   11.1319 O.2     1  UNL1       -0.1685
      8 O           2.2816   41.1689    9.0242 O.2     1  UNL1       -0.1685
      9 C           5.6619   41.9835   10.2363 C.3     1  UNL1        0.1206
     10 C           4.4158   42.6963    9.6957 C.3     1  UNL1        0.1800
     11 C           3.9357   40.4954   11.0273 C.2     1  UNL1        0.1199
     12 C           5.2395   40.7393   10.9730 C.2     1  UNL1        0.0145
     13 S           3.0333   41.7185   10.2029 S.O2    1  UNL1        0.0116
     14 C          10.1789   41.0042    8.1046 C.ar    1  UNL1        0.0546
     15 C          10.7162   39.7177    8.2210 C.ar    1  UNL1        0.0516
     16 C          12.0997   39.5143    8.1876 C.ar    1  UNL1        0.1396
     17 C          12.9547   40.6170    8.0327 C.ar    1  UNL1        0.0370
     18 C          12.4272   41.9049    7.9153 C.ar    1  UNL1        0.0044
     19 C          11.0441   42.0978    7.9513 C.ar    1  UNL1        0.0149
     20 O          12.5952   38.2112    8.3054 O.3     1  UNL1       -0.4791
     21 C          12.9945   37.6378    9.5459 C.3     1  UNL1        0.1659
     22 C          14.2217   36.7692    9.3324 C.3     1  UNL1        0.0435
     23 C          13.7899   35.3397    9.5803 C.3     1  UNL1        0.0038
     24 C          12.5770   35.4370   10.4732 C.3     1  UNL1        0.0038
     25 C          11.8980   36.7274   10.0753 C.3     1  UNL1        0.0435
@<TRIPOS>BOND
     1     2     3   am
     2     2     4   am
     3     9     3    1
     4     9    10    1
     5     9    12    1
     6    10    13    1
     7    15    16   ar
     8    16    20    1
     9    21    20    1
    10    21    22    1
    11    22    23    1
    12    23    24    1
    13    24    25    1
    14    25    21    1
    15    17    18   ar
    16    19    14   ar
    17     4    14    1
    18    13    11    1
    19     2     1    2
    20    11    12    2
    21    14    15   ar
    22    16    17   ar
    23    18    19   ar
    24    13     7    2
    25    13     8    2
    26     3     5    1
    27     4     6    1
@<TRIPOS>MOLECULE
MolPort-039-120-590 CSSS00160134734 MCULE-9974437556 PubChem-118789298
 25 27 0 0 0
SMALL
GASTEIGER

@<TRIPOS>ATOM
      1 O           9.0694   41.9656    7.9310 O.2     1  UNL1       -0.2525
      2 C           9.1870   41.7532    6.6936 C.2     1  UNL1        0.3047
      3 N           8.0510   41.8721    5.8355 N.am    1  UNL1       -0.2848
      4 N          10.4508   41.3867    6.1257 N.am    1  UNL1       -0.2682
      5 H           8.1622   41.6806    4.8763 H       1  UNL1        0.1513
      6 H          10.4683   41.2298    5.1539 H       1  UNL1        0.1564
      7 O           4.6762   42.5137    9.3576 O.2     1  UNL1       -0.1685
      8 O           7.0709   42.2983    9.9873 O.2     1  UNL1       -0.1685
      9 C           6.7358   42.2644    6.3204 C.3     1  UNL1        0.1206
     10 C           6.3469   41.4090    7.5330 C.3     1  UNL1        0.1800
     11 C           6.4580   43.9832    7.9904 C.2     1  UNL1        0.1199
     12 C           6.7639   43.7147    6.7268 C.2     1  UNL1        0.0145
     13 S           6.0967   42.5386    8.8694 S.O2    1  UNL1        0.0116
     14 C          11.6927   41.2245    6.8246 C.ar    1  UNL1        0.0546
     15 C          12.6853   42.1978    6.6665 C.ar    1  UNL1        0.0516
     16 C          13.9125   42.0822    7.3277 C.ar    1  UNL1        0.1396
     17 C          14.1450   40.9762    8.1605 C.ar    1  UNL1        0.0370
     18 C          13.1599   39.9999    8.3245 C.ar    1  UNL1        0.0044
     19 C          11.9380   40.1235    7.6588 C.ar    1  UNL1        0.0149
     20 O          14.8769   43.0790    7.1436 O.3     1  UNL1       -0.4791
     21 C          16.2734   42.8103    7.0768 C.3     1  UNL1        0.1659
     22 C          16.7923   42.4712    8.4631 C.3     1  UNL1        0.0435
     23 C          17.7130   43.6016    8.8701 C.3     1  UNL1        0.0038
     24 C          18.1776   44.2251    7.5766 C.3     1  UNL1        0.0038
     25 C          17.0211   44.0523    6.6190 C.3     1  UNL1        0.0435
@<TRIPOS>BOND
     1     2     3   am
     2     2     4   am
     3     9     3    1
     4     9    10    1
     5     9    12    1
     6    10    13    1
     7    15    16   ar
     8    16    20    1
     9    21    20    1
    10    21    22    1
    11    22    23    1
    12    23    24    1
    13    24    25    1
    14    25    21    1
    15    17    18   ar
    16    19    14   ar
    17     4    14    1
    18    13    11    1
    19     2     1    2
    20    11    12    2
    21    14    15   ar
    22    16    17   ar
    23    18    19   ar
    24    13     7    2
    25    13     8    2
    26     3     5    1
    27     4     6    1
@<TRIPOS>MOLECULE
MolPort-039-120-590 CSSS00160134734 MCULE-9974437556 PubChem-118789298
 25 27 0 0 0
SMALL
GASTEIGER

@<TRIPOS>ATOM
      1 O           8.0876   40.9547    8.7341 O.2     1  UNL1       -0.2525
      2 C           8.3782   40.9312    9.9608 C.2     1  UNL1        0.3047
      3 N           9.7081   40.6146   10.3757 N.am    1  UNL1       -0.2848
      4 N           7.3887   41.2147   10.9581 N.am    1  UNL1       -0.2682
      5 H           9.9063   40.5813   11.3395 H       1  UNL1        0.1513
      6 H           7.6838   41.1720   11.8964 H       1  UNL1        0.1564
      7 O          14.4186   39.8469    9.1809 O.2     1  UNL1       -0.1685
      8 O          13.7022   39.5876   11.5467 O.2     1  UNL1       -0.1685
      9 C          10.7823   40.3391    9.4329 C.3     1  UNL1        0.1206
     10 C          12.0798   41.0068    9.9060 C.3     1  UNL1        0.1800
     11 C          12.2061   38.4047    9.6587 C.2     1  UNL1        0.1199
     12 C          10.9973   38.8510    9.3394 C.2     1  UNL1        0.0145
     13 S          13.2533   39.7019   10.1178 S.O2    1  UNL1        0.0116
     14 C           6.0135   41.5540   10.7326 C.ar    1  UNL1        0.0546
     15 C           5.7165   42.6411    9.9034 C.ar    1  UNL1        0.0516
     16 C           4.3904   43.0098    9.6543 C.ar    1  UNL1        0.1396
     17 C           3.3489   42.2757   10.2436 C.ar    1  UNL1        0.0370
     18 C           3.6359   41.1888   11.0724 C.ar    1  UNL1        0.0044
     19 C           4.9636   40.8293   11.3162 C.ar    1  UNL1        0.0149
     20 O           4.1374   44.1020    8.8174 O.3     1  UNL1       -0.4791
     21 C           5.1404   44.7218    8.0193 C.3     1  UNL1        0.1659
     22 C           5.2153   44.0297    6.6697 C.3     1  UNL1        0.0435
     23 C           6.5564   43.3298    6.6150 C.3     1  UNL1        0.0038
     24 C           7.4367   44.0747    7.5886 C.3     1  UNL1        0.0038
     25 C           6.5023   44.5569    8.6743 C.3     1  UNL1        0.0435
@<TRIPOS>BOND
     1     2     3   am
     2     2     4   am
     3     9     3    1
     4     9    10    1
     5     9    12    1
     6    10    13    1
     7    15    16   ar
     8    16    20    1
     9    21    20    1
    10    21    22    1
    11    22    23    1
    12    23    24    1
    13    24    25    1
    14    25    21    1
    15    17    18   ar
    16    19    14   ar
    17     4    14    1
    18    13    11    1
    19     2     1    2
    20    11    12    2
    21    14    15   ar
    22    16    17   ar
    23    18    19   ar
    24    13     7    2
    25    13     8    2
    26     3     5    1
    27     4     6    1
@<TRIPOS>MOLECULE
MolPort-039-120-590 CSSS00160134734 MCULE-9974437556 PubChem-118789298
 25 27 0 0 0
SMALL
GASTEIGER

@<TRIPOS>ATOM
      1 O          13.6323   39.4036   11.7801 O.2     1  UNL1       -0.2525
      2 C          13.9861   39.8353   10.6494 C.2     1  UNL1        0.3047
      3 N          15.2945   39.5505   10.1515 N.am    1  UNL1       -0.2848
      4 N          13.0931   40.6183    9.8472 N.am    1  UNL1       -0.2682
      5 H          15.5558   39.9161    9.2755 H       1  UNL1        0.1513
      6 H          13.4376   40.9276    8.9783 H       1  UNL1        0.1564
      7 O          18.5064   35.8482   10.5784 O.2     1  UNL1       -0.1685
      8 O          17.8613   36.6488    8.3156 O.2     1  UNL1       -0.1685
      9 C          16.2574   38.7424   10.8853 C.3     1  UNL1        0.1206
     10 C          16.2252   37.2960   10.3754 C.3     1  UNL1        0.1800
     11 C          18.5388   38.4960   10.1406 C.2     1  UNL1        0.1199
     12 C          17.6399   39.3064   10.6860 C.2     1  UNL1        0.0145
     13 S          17.8555   36.9473    9.7878 S.O2    1  UNL1        0.0116
     14 C          11.7501   40.9986   10.1774 C.ar    1  UNL1        0.0546
     15 C          11.0211   41.7592    9.2569 C.ar    1  UNL1        0.0516
     16 C           9.7082   42.1537    9.5351 C.ar    1  UNL1        0.1396
     17 C           9.1190   41.7773   10.7525 C.ar    1  UNL1        0.0370
     18 C           9.8391   41.0178   11.6772 C.ar    1  UNL1        0.0044
     19 C          11.1502   40.6298   11.3907 C.ar    1  UNL1        0.0149
     20 O           9.0139   42.9120    8.5862 O.3     1  UNL1       -0.4791
     21 C           7.6120   42.7943    8.3680 C.3     1  UNL1        0.1659
     22 C           7.3609   42.1007    7.0406 C.3     1  UNL1        0.0435
     23 C           6.7360   43.1309    6.1243 C.3     1  UNL1        0.0038
     24 C           6.1030   44.1498    7.0402 C.3     1  UNL1        0.0038
     25 C           6.9830   44.1748    8.2687 C.3     1  UNL1        0.0435
@<TRIPOS>BOND
     1     2     3   am
     2     2     4   am
     3     9     3    1
     4     9    10    1
     5     9    12    1
     6    10    13    1
     7    15    16   ar
     8    16    20    1
     9    21    20    1
    10    21    22    1
    11    22    23    1
    12    23    24    1
    13    24    25    1
    14    25    21    1
    15    17    18   ar
    16    19    14   ar
    17     4    14    1
    18    13    11    1
    19     2     1    2
    20    11    12    2
    21    14    15   ar
    22    16    17   ar
    23    18    19   ar
    24    13     7    2
    25    13     8    2
    26     3     5    1
    27     4     6    1
@<TRIPOS>MOLECULE
MolPort-039-120-590 CSSS00160134734 MCULE-9974437556 PubChem-118789298
 25 27 0 0 0
SMALL
GASTEIGER

@<TRIPOS>ATOM
      1 O          12.0762   40.5888    6.8613 O.2     1  UNL1       -0.2525
      2 C          11.9134   41.6941    6.2767 C.2     1  UNL1        0.3047
      3 N          10.6942   41.9643    5.5827 N.am    1  UNL1       -0.2848
      4 N          12.9403   42.6938    6.2912 N.am    1  UNL1       -0.2682
      5 H          10.5982   42.8256    5.1156 H       1  UNL1        0.1513
      6 H          12.7479   43.5302    5.8089 H       1  UNL1        0.1564
      7 O           8.4636   37.7474    6.7861 O.2     1  UNL1       -0.1685
      8 O          10.3531   38.5682    8.1768 O.2     1  UNL1       -0.1685
      9 C           9.5881   41.0192    5.5374 C.3     1  UNL1        0.1206
     10 C          10.1164   39.5859    5.6774 C.3     1  UNL1        0.1800
     11 C           8.4279   40.3244    7.5352 C.2     1  UNL1        0.1199
     12 C           8.6358   41.3081    6.6683 C.2     1  UNL1        0.0145
     13 S           9.3441   38.9178    7.1203 S.O2    1  UNL1        0.0116
     14 C          14.2189   42.6033    6.9346 C.ar    1  UNL1        0.0546
     15 C          14.4495   41.5510    7.8273 C.ar    1  UNL1        0.0516
     16 C          15.6806   41.4219    8.4786 C.ar    1  UNL1        0.1396
     17 C          16.6943   42.3604    8.2284 C.ar    1  UNL1        0.0370
     18 C          16.4732   43.4140    7.3386 C.ar    1  UNL1        0.0044
     19 C          15.2397   43.5351    6.6940 C.ar    1  UNL1        0.0149
     20 O          15.8702   40.3536    9.3619 O.3     1  UNL1       -0.4791
     21 C          14.8870   39.3507    9.5954 C.3     1  UNL1        0.1659
     22 C          14.0082   39.7629   10.7632 C.3     1  UNL1        0.0435
     23 C          14.2958   38.7904   11.8869 C.3     1  UNL1        0.0038
     24 C          14.8265   37.5476   11.2149 C.3     1  UNL1        0.0038
     25 C          15.5586   38.0451    9.9898 C.3     1  UNL1        0.0435
@<TRIPOS>BOND
     1     2     3   am
     2     2     4   am
     3     9     3    1
     4     9    10    1
     5     9    12    1
     6    10    13    1
     7    15    16   ar
     8    16    20    1
     9    21    20    1
    10    21    22    1
    11    22    23    1
    12    23    24    1
    13    24    25    1
    14    25    21    1
    15    17    18   ar
    16    19    14   ar
    17     4    14    1
    18    13    11    1
    19     2     1    2
    20    11    12    2
    21    14    15   ar
    22    16    17   ar
    23    18    19   ar
    24    13     7    2
    25    13     8    2
    26     3     5    1
    27     4     6    1
@<TRIPOS>MOLECULE
MolPort-039-120-590 CSSS00160134734 MCULE-9974437556 PubChem-118789298
 25 27 0 0 0
SMALL
GASTEIGER

@<TRIPOS>ATOM
      1 O           9.8935   40.9619    8.1521 O.2     1  UNL1       -0.2525
      2 C           9.6797   41.0517    9.3916 C.2     1  UNL1        0.3047
      3 N           8.3570   41.2933    9.8744 N.am    1  UNL1       -0.2848
      4 N          10.7500   40.9192   10.3355 N.am    1  UNL1       -0.2682
      5 H           8.2178   41.3810   10.8450 H       1  UNL1        0.1513
      6 H          10.5120   41.0068   11.2867 H       1  UNL1        0.1564
      7 O           4.6438   43.7745    7.8100 O.2     1  UNL1       -0.1685
      8 O           6.5112   45.0292    8.8667 O.2     1  UNL1       -0.1685
      9 C           7.2066   41.4153    8.9910 C.3     1  UNL1        0.1206
     10 C           6.2092   42.4294    9.5654 C.3     1  UNL1        0.1800
     11 C           7.1476   43.0270    7.1968 C.2     1  UNL1        0.1199
     12 C           7.6640   41.8851    7.6348 C.2     1  UNL1        0.0145
     13 S           6.0449   43.6992    8.3467 S.O2    1  UNL1        0.0116
     14 C          12.1315   40.6722   10.0395 C.ar    1  UNL1        0.0546
     15 C          12.6897   41.2576    8.8979 C.ar    1  UNL1        0.0516
     16 C          14.0324   41.0453    8.5685 C.ar    1  UNL1        0.1396
     17 C          14.8257   40.2366    9.3977 C.ar    1  UNL1        0.0370
     18 C          14.2771   39.6484   10.5395 C.ar    1  UNL1        0.0044
     19 C          12.9347   39.8654   10.8593 C.ar    1  UNL1        0.0149
     20 O          14.5513   41.6512    7.4191 O.3     1  UNL1       -0.4791
     21 C          14.8672   43.0373    7.3431 C.3     1  UNL1        0.1659
     22 C          14.2013   43.6439    6.1205 C.3     1  UNL1        0.0435
     23 C          15.3124   44.0271    5.1667 C.3     1  UNL1        0.0038
     24 C          16.5376   44.2047    6.0298 C.3     1  UNL1        0.0038
     25 C          16.3658   43.2205    7.1639 C.3     1  UNL1        0.0435
@<TRIPOS>BOND
     1     2     3   am
     2     2     4   am
     3     9     3    1
     4     9    10    1
     5     9    12    1
     6    10    13    1
     7    15    16   ar
     8    16    20    1
     9    21    20    1
    10    21    22    1
    11    22    23    1
    12    23    24    1
    13    24    25    1
    14    25    21    1
    15    17    18   ar
    16    19    14   ar
    17     4    14    1
    18    13    11    1
    19     2     1    2
    20    11    12    2
    21    14    15   ar
    22    16    17   ar
    23    18    19   ar
    24    13     7    2
    25    13     8    2
    26     3     5    1
    27     4     6    1
