@<TRIPOS>MOLECULE
MolPort-047-152-614 MCULE-3835555102 MCULE-4567635678 PubChem-145944756 PubChem-83404161
 18 19 0 0 0
SMALL
GASTEIGER

@<TRIPOS>ATOM
      1 C          14.8217   41.7023    7.8192 C.ar    1  UNL1        0.0500
      2 C          15.2020   40.8385    8.8578 C.ar    1  UNL1        0.0147
      3 C          14.3498   39.8112    9.2710 C.ar    1  UNL1        0.0010
      4 C          13.1110   39.6398    8.6489 C.ar    1  UNL1       -0.0041
      5 C          12.7208   40.4975    7.6096 C.ar    1  UNL1       -0.0199
      6 C          13.5792   41.5239    7.2012 C.ar    1  UNL1        0.0104
      7 C          11.4000   40.3359    6.9269 C.3     1  UNL1        0.0381
      8 C          10.7085   41.6915    6.7444 C.3     1  UNL1        0.0072
      9 C           9.2365   41.5047    6.3825 C.3     1  UNL1        0.0175
     10 C           8.5111   40.5584    7.3551 C.3     1  UNL1        0.0686
     11 C          10.5156   39.3134    7.6589 C.3     1  UNL1        0.0729
     12 N           9.4121   39.9748    8.3528 N.3     1  UNL1       -0.2972
     13 H           8.9041   39.2936    8.9170 H       1  UNL1        0.1233
     14 C          17.8120   44.0297    6.9659 C.3     1  UNL1        0.0949
     15 C          17.0952   42.8410    7.4958 C.2     1  UNL1        0.2266
     16 O          17.7522   41.9192    8.0474 O.2     1  UNL1       -0.2748
     17 N          15.6695   42.7674    7.3683 N.am    1  UNL1       -0.2839
     18 H          15.2264   43.5268    6.9253 H       1  UNL1        0.1549
@<TRIPOS>BOND
     1    14    15    1
     2    15    17   am
     3     2     3   ar
     4     4     5   ar
     5     6     1   ar
     6     7     5    1
     7     7     8    1
     8     8     9    1
     9     9    10    1
    10    10    12    1
    11    11    12    1
    12    11     7    1
    13    17     1    1
    14    15    16    2
    15     1     2   ar
    16     3     4   ar
    17     5     6   ar
    18    17    18    1
    19    12    13    1
@<TRIPOS>MOLECULE
MolPort-047-152-614 MCULE-3835555102 MCULE-4567635678 PubChem-145944756 PubChem-83404161
 18 19 0 0 0
SMALL
GASTEIGER

@<TRIPOS>ATOM
      1 C          13.7826   41.9328    7.1622 C.ar    1  UNL1        0.0500
      2 C          12.7296   41.7790    6.2472 C.ar    1  UNL1        0.0147
      3 C          11.6578   40.9314    6.5385 C.ar    1  UNL1        0.0010
      4 C          11.6305   40.2312    7.7468 C.ar    1  UNL1       -0.0041
      5 C          12.6778   40.3774    8.6687 C.ar    1  UNL1       -0.0199
      6 C          13.7478   41.2278    8.3702 C.ar    1  UNL1        0.0104
      7 C          12.6732   39.6393    9.9694 C.3     1  UNL1        0.0381
      8 C          14.0141   39.7992   10.6944 C.3     1  UNL1        0.0072
      9 C          14.1443   38.7799   11.8242 C.3     1  UNL1        0.0175
     10 C          13.8558   37.3440   11.3521 C.3     1  UNL1        0.0686
     11 C          12.2776   38.1667    9.7732 C.3     1  UNL1        0.0729
     12 N          13.4299   37.2850    9.9511 N.3     1  UNL1       -0.2972
     13 H          13.1701   36.3282    9.7115 H       1  UNL1        0.1233
     14 C          16.1374   44.7957    6.0023 C.3     1  UNL1        0.0949
     15 C          14.8744   44.0334    6.1797 C.2     1  UNL1        0.2266
     16 O          13.8049   44.4897    5.6964 O.2     1  UNL1       -0.2748
     17 N          14.8990   42.7933    6.8979 N.am    1  UNL1       -0.2839
     18 H          15.7727   42.5021    7.2458 H       1  UNL1        0.1549
@<TRIPOS>BOND
     1    14    15    1
     2    15    17   am
     3     2     3   ar
     4     4     5   ar
     5     6     1   ar
     6     7     5    1
     7     7     8    1
     8     8     9    1
     9     9    10    1
    10    10    12    1
    11    11    12    1
    12    11     7    1
    13    17     1    1
    14    15    16    2
    15     1     2   ar
    16     3     4   ar
    17     5     6   ar
    18    17    18    1
    19    12    13    1
@<TRIPOS>MOLECULE
MolPort-047-152-614 MCULE-3835555102 MCULE-4567635678 PubChem-145944756 PubChem-83404161
 18 19 0 0 0
SMALL
GASTEIGER

@<TRIPOS>ATOM
      1 C          13.9352   38.9260   10.0197 C.ar    1  UNL1        0.0500
      2 C          13.3878   37.6470    9.8352 C.ar    1  UNL1        0.0147
      3 C          12.0025   37.4695    9.7971 C.ar    1  UNL1        0.0010
      4 C          11.1540   38.5693    9.9432 C.ar    1  UNL1       -0.0041
      5 C          11.6904   39.8523   10.1282 C.ar    1  UNL1       -0.0199
      6 C          13.0785   40.0224   10.1653 C.ar    1  UNL1        0.0104
      7 C          10.8043   41.0465   10.2873 C.3     1  UNL1        0.0381
      8 C          10.0064   40.9662   11.5934 C.3     1  UNL1        0.0072
      9 C           8.8614   41.9769   11.5921 C.3     1  UNL1        0.0175
     10 C           7.9961   41.8783   10.3235 C.3     1  UNL1        0.0686
     11 C           9.9059   41.2421    9.0551 C.3     1  UNL1        0.0729
     12 N           8.5164   40.9049    9.3593 N.3     1  UNL1       -0.2972
     13 H           7.9605   40.9376    8.5048 H       1  UNL1        0.1233
     14 C          17.6704   39.2124   11.0462 C.3     1  UNL1        0.0949
     15 C          16.2188   38.9266   11.1839 C.2     1  UNL1        0.2266
     16 O          15.7759   38.4959   12.2811 O.2     1  UNL1       -0.2748
     17 N          15.3516   39.1468   10.0643 N.am    1  UNL1       -0.2839
     18 H          15.7716   39.4847    9.2405 H       1  UNL1        0.1549
@<TRIPOS>BOND
     1    14    15    1
     2    15    17   am
     3     2     3   ar
     4     4     5   ar
     5     6     1   ar
     6     7     5    1
     7     7     8    1
     8     8     9    1
     9     9    10    1
    10    10    12    1
    11    11    12    1
    12    11     7    1
    13    17     1    1
    14    15    16    2
    15     1     2   ar
    16     3     4   ar
    17     5     6   ar
    18    17    18    1
    19    12    13    1
@<TRIPOS>MOLECULE
MolPort-047-152-614 MCULE-3835555102 MCULE-4567635678 PubChem-145944756 PubChem-83404161
 18 19 0 0 0
SMALL
GASTEIGER

@<TRIPOS>ATOM
      1 C          16.3228   41.0190    9.0317 C.ar    1  UNL1        0.0500
      2 C          16.8264   40.1570   10.0179 C.ar    1  UNL1        0.0147
      3 C          15.9622   39.3397   10.7511 C.ar    1  UNL1        0.0010
      4 C          14.5881   39.3782   10.5036 C.ar    1  UNL1       -0.0041
      5 C          14.0739   40.2362    9.5201 C.ar    1  UNL1       -0.0199
      6 C          14.9452   41.0517    8.7900 C.ar    1  UNL1        0.0104
      7 C          12.6069   40.2968    9.2354 C.3     1  UNL1        0.0381
      8 C          12.1686   41.7320    8.9233 C.3     1  UNL1        0.0072
      9 C          10.6478   41.8594    8.9838 C.3     1  UNL1        0.0175
     10 C          10.0658   41.2983   10.2930 C.3     1  UNL1        0.0686
     11 C          11.7915   39.6625   10.3739 C.3     1  UNL1        0.0729
     12 N          11.0859   40.6832   11.1466 N.3     1  UNL1       -0.2972
     13 H          10.6410   40.2532   11.9575 H       1  UNL1        0.1233
     14 C          17.8135   43.7821    6.7447 C.3     1  UNL1        0.0949
     15 C          16.7817   43.0110    7.4853 C.2     1  UNL1        0.2266
     16 O          15.5768   43.3713    7.4200 O.2     1  UNL1       -0.2748
     17 N          17.1788   41.8722    8.2596 N.am    1  UNL1       -0.2839
     18 H          18.1385   41.6529    8.2616 H       1  UNL1        0.1549
@<TRIPOS>BOND
     1    14    15    1
     2    15    17   am
     3     2     3   ar
     4     4     5   ar
     5     6     1   ar
     6     7     5    1
     7     7     8    1
     8     8     9    1
     9     9    10    1
    10    10    12    1
    11    11    12    1
    12    11     7    1
    13    17     1    1
    14    15    16    2
    15     1     2   ar
    16     3     4   ar
    17     5     6   ar
    18    17    18    1
    19    12    13    1
@<TRIPOS>MOLECULE
MolPort-047-152-614 MCULE-3835555102 MCULE-4567635678 PubChem-145944756 PubChem-83404161
 18 19 0 0 0
SMALL
GASTEIGER

@<TRIPOS>ATOM
      1 C           8.2029   40.7811    7.7886 C.ar    1  UNL1        0.0500
      2 C           7.7251   39.8359    6.8678 C.ar    1  UNL1        0.0147
      3 C           8.4154   38.6390    6.6605 C.ar    1  UNL1        0.0010
      4 C           9.5885   38.3779    7.3722 C.ar    1  UNL1       -0.0041
      5 C          10.0752   39.3157    8.2951 C.ar    1  UNL1       -0.0199
      6 C           9.3788   40.5121    8.4974 C.ar    1  UNL1        0.0104
      7 C          11.3287   39.0610    9.0700 C.3     1  UNL1        0.0381
      8 C          11.3934   39.9526   10.3151 C.3     1  UNL1        0.0072
      9 C          12.8023   39.9587   10.9047 C.3     1  UNL1        0.0175
     10 C          13.8760   40.2785    9.8498 C.3     1  UNL1        0.0686
     11 C          12.5732   39.1981    8.1777 C.3     1  UNL1        0.0729
     12 N          13.3198   40.4126    8.5006 N.3     1  UNL1       -0.2972
     13 H          14.0767   40.5389    7.8286 H       1  UNL1        0.1233
     14 C           6.4598   44.2388    7.4841 C.3     1  UNL1        0.0949
     15 C           7.1689   43.0072    7.0503 C.2     1  UNL1        0.2266
     16 O           7.4473   42.8518    5.8322 O.2     1  UNL1       -0.2748
     17 N           7.5217   42.0202    8.0278 N.am    1  UNL1       -0.2839
     18 H           7.2705   42.2129    8.9600 H       1  UNL1        0.1549
@<TRIPOS>BOND
     1    14    15    1
     2    15    17   am
     3     2     3   ar
     4     4     5   ar
     5     6     1   ar
     6     7     5    1
     7     7     8    1
     8     8     9    1
     9     9    10    1
    10    10    12    1
    11    11    12    1
    12    11     7    1
    13    17     1    1
    14    15    16    2
    15     1     2   ar
    16     3     4   ar
    17     5     6   ar
    18    17    18    1
    19    12    13    1
@<TRIPOS>MOLECULE
MolPort-047-152-614 MCULE-3835555102 MCULE-4567635678 PubChem-145944756 PubChem-83404161
 18 19 0 0 0
SMALL
GASTEIGER

@<TRIPOS>ATOM
      1 C           9.9554   41.6559   10.7033 C.ar    1  UNL1        0.0500
      2 C          11.0998   41.6790    9.8913 C.ar    1  UNL1        0.0147
      3 C          10.9886   41.9190    8.5193 C.ar    1  UNL1        0.0010
      4 C           9.7325   42.1378    7.9489 C.ar    1  UNL1       -0.0041
      5 C           8.5819   42.1169    8.7513 C.ar    1  UNL1       -0.0199
      6 C           8.7009   41.8759   10.1243 C.ar    1  UNL1        0.0104
      7 C           7.2253   42.3480    8.1659 C.3     1  UNL1        0.0381
      8 C           7.1875   43.6586    7.3720 C.3     1  UNL1        0.0072
      9 C           5.7472   44.0736    7.0793 C.3     1  UNL1        0.0175
     10 C           4.8730   44.0839    8.3455 C.3     1  UNL1        0.0686
     11 C           6.1329   42.2775    9.2454 C.3     1  UNL1        0.0729
     12 N           5.5896   43.6043    9.5304 N.3     1  UNL1       -0.2972
     13 H           4.9475   43.5495   10.3210 H       1  UNL1        0.1233
     14 C           9.1987   41.0537   14.4652 C.3     1  UNL1        0.0949
     15 C           8.9295   41.3110   13.0268 C.2     1  UNL1        0.2266
     16 O           7.7395   41.4351   12.6341 O.2     1  UNL1       -0.2748
     17 N          10.0303   41.4127   12.1147 N.am    1  UNL1       -0.2839
     18 H          10.9313   41.3044   12.4966 H       1  UNL1        0.1549
@<TRIPOS>BOND
     1    14    15    1
     2    15    17   am
     3     2     3   ar
     4     4     5   ar
     5     6     1   ar
     6     7     5    1
     7     7     8    1
     8     8     9    1
     9     9    10    1
    10    10    12    1
    11    11    12    1
    12    11     7    1
    13    17     1    1
    14    15    16    2
    15     1     2   ar
    16     3     4   ar
    17     5     6   ar
    18    17    18    1
    19    12    13    1
@<TRIPOS>MOLECULE
MolPort-047-152-614 MCULE-3835555102 MCULE-4567635678 PubChem-145944756 PubChem-83404161
 18 19 0 0 0
SMALL
GASTEIGER

@<TRIPOS>ATOM
      1 C          14.5816   41.7246    7.7355 C.ar    1  UNL1        0.0500
      2 C          14.9930   40.8903    8.7863 C.ar    1  UNL1        0.0147
      3 C          14.1365   39.9048    9.2836 C.ar    1  UNL1        0.0010
      4 C          12.8623   39.7458    8.7339 C.ar    1  UNL1       -0.0041
      5 C          12.4408   40.5742    7.6832 C.ar    1  UNL1       -0.0199
      6 C          13.3038   41.5590    7.1905 C.ar    1  UNL1        0.0104
      7 C          11.0818   40.4251    7.0770 C.3     1  UNL1        0.0381
      8 C          10.3753   39.1768    7.6171 C.3     1  UNL1        0.0072
      9 C           9.1627   38.8256    6.7575 C.3     1  UNL1        0.0175
     10 C           9.5100   38.7493    5.2603 C.3     1  UNL1        0.0686
     11 C          11.1508   40.4491    5.5413 C.3     1  UNL1        0.0729
     12 N          10.9001   39.1215    4.9834 N.3     1  UNL1       -0.2972
     13 H          11.0567   39.1377    3.9756 H       1  UNL1        0.1233
     14 C          16.0484   44.8809    6.0112 C.3     1  UNL1        0.0949
     15 C          15.0192   43.9261    6.4978 C.2     1  UNL1        0.2266
     16 O          13.8020   44.1694    6.2857 O.2     1  UNL1       -0.2748
     17 N          15.4328   42.7468    7.1994 N.am    1  UNL1       -0.2839
     18 H          16.4015   42.6259    7.3264 H       1  UNL1        0.1549
@<TRIPOS>BOND
     1    14    15    1
     2    15    17   am
     3     2     3   ar
     4     4     5   ar
     5     6     1   ar
     6     7     5    1
     7     7     8    1
     8     8     9    1
     9     9    10    1
    10    10    12    1
    11    11    12    1
    12    11     7    1
    13    17     1    1
    14    15    16    2
    15     1     2   ar
    16     3     4   ar
    17     5     6   ar
    18    17    18    1
    19    12    13    1
@<TRIPOS>MOLECULE
MolPort-047-152-614 MCULE-3835555102 MCULE-4567635678 PubChem-145944756 PubChem-83404161
 18 19 0 0 0
SMALL
GASTEIGER

@<TRIPOS>ATOM
      1 C          14.1456   41.7047    7.9867 C.ar    1  UNL1        0.0500
      2 C          14.6823   40.7315    8.8437 C.ar    1  UNL1        0.0147
      3 C          13.8973   40.1671    9.8524 C.ar    1  UNL1        0.0010
      4 C          12.5699   40.5715   10.0120 C.ar    1  UNL1       -0.0041
      5 C          12.0232   41.5436    9.1610 C.ar    1  UNL1       -0.0199
      6 C          12.8152   42.1043    8.1532 C.ar    1  UNL1        0.0104
      7 C          10.6050   41.9943    9.3102 C.3     1  UNL1        0.0381
      8 C          10.5129   43.2162   10.2309 C.3     1  UNL1        0.0072
      9 C           9.0695   43.4585   10.6672 C.3     1  UNL1        0.0175
     10 C           8.4120   42.1914   11.2418 C.3     1  UNL1        0.0686
     11 C           9.6981   40.8395    9.7658 C.3     1  UNL1        0.0729
     12 N           9.2821   41.0153   11.1560 N.3     1  UNL1       -0.2972
     13 H           8.7732   40.1885   11.4690 H       1  UNL1        0.1233
     14 C          15.4853   43.9234    5.0937 C.3     1  UNL1        0.0949
     15 C          14.5489   43.4344    6.1387 C.2     1  UNL1        0.2266
     16 O          13.4458   44.0193    6.3017 O.2     1  UNL1       -0.2748
     17 N          14.9206   42.3061    6.9406 N.am    1  UNL1       -0.2839
     18 H          15.7988   41.9022    6.7540 H       1  UNL1        0.1549
@<TRIPOS>BOND
     1    14    15    1
     2    15    17   am
     3     2     3   ar
     4     4     5   ar
     5     6     1   ar
     6     7     5    1
     7     7     8    1
     8     8     9    1
     9     9    10    1
    10    10    12    1
    11    11    12    1
    12    11     7    1
    13    17     1    1
    14    15    16    2
    15     1     2   ar
    16     3     4   ar
    17     5     6   ar
    18    17    18    1
    19    12    13    1
@<TRIPOS>MOLECULE
MolPort-047-152-614 MCULE-3835555102 MCULE-4567635678 PubChem-145944756 PubChem-83404161
 18 19 0 0 0
SMALL
GASTEIGER

@<TRIPOS>ATOM
      1 C           6.8656   41.2446    7.5366 C.ar    1  UNL1        0.0500
      2 C           6.6109   40.2955    6.5347 C.ar    1  UNL1        0.0147
      3 C           7.5429   39.2919    6.2581 C.ar    1  UNL1        0.0010
      4 C           8.7364   39.2297    6.9811 C.ar    1  UNL1       -0.0041
      5 C           9.0011   40.1734    7.9848 C.ar    1  UNL1       -0.0199
      6 C           8.0634   41.1755    8.2562 C.ar    1  UNL1        0.0104
      7 C          10.2710   40.1294    8.7735 C.3     1  UNL1        0.0381
      8 C          11.1844   41.3043    8.4066 C.3     1  UNL1        0.0072
      9 C          12.6005   41.0739    8.9301 C.3     1  UNL1        0.0175
     10 C          13.1573   39.6981    8.5238 C.3     1  UNL1        0.0686
     11 C          10.9701   38.7678    8.6289 C.3     1  UNL1        0.0729
     12 N          12.1744   38.8801    7.8080 N.3     1  UNL1       -0.2972
     13 H          12.5604   37.9518    7.6363 H       1  UNL1        0.1233
     14 C           4.8930   44.5819    7.7789 C.3     1  UNL1        0.0949
     15 C           5.9469   43.6297    7.3426 C.2     1  UNL1        0.2266
     16 O           6.8333   44.0169    6.5364 O.2     1  UNL1       -0.2748
     17 N           5.9331   42.2887    7.8484 N.am    1  UNL1       -0.2839
     18 H           5.2086   42.0607    8.4747 H       1  UNL1        0.1549
@<TRIPOS>BOND
     1    14    15    1
     2    15    17   am
     3     2     3   ar
     4     4     5   ar
     5     6     1   ar
     6     7     5    1
     7     7     8    1
     8     8     9    1
     9     9    10    1
    10    10    12    1
    11    11    12    1
    12    11     7    1
    13    17     1    1
    14    15    16    2
    15     1     2   ar
    16     3     4   ar
    17     5     6   ar
    18    17    18    1
    19    12    13    1
@<TRIPOS>MOLECULE
MolPort-047-152-614 MCULE-3835555102 MCULE-4567635678 PubChem-145944756 PubChem-83404161
 18 19 0 0 0
SMALL
GASTEIGER

@<TRIPOS>ATOM
      1 C          11.8731   41.4973    9.0690 C.ar    1  UNL1        0.0500
      2 C          12.5012   40.5793    9.9248 C.ar    1  UNL1        0.0147
      3 C          13.8545   40.2722    9.7617 C.ar    1  UNL1        0.0010
      4 C          14.5900   40.8806    8.7420 C.ar    1  UNL1       -0.0041
      5 C          13.9722   41.7998    7.8809 C.ar    1  UNL1       -0.0199
      6 C          12.6168   42.1023    8.0501 C.ar    1  UNL1        0.0104
      7 C          14.7366   42.4652    6.7811 C.3     1  UNL1        0.0381
      8 C          15.9973   43.1465    7.3251 C.3     1  UNL1        0.0072
      9 C          16.5805   44.1102    6.2938 C.3     1  UNL1        0.0175
     10 C          15.5268   45.0893    5.7472 C.3     1  UNL1        0.0686
     11 C          13.8414   43.4266    5.9825 C.3     1  UNL1        0.0729
     12 N          14.1827   44.8195    6.2653 N.3     1  UNL1       -0.2972
     13 H          13.5096   45.4368    5.8111 H       1  UNL1        0.1233
     14 C           8.4757   43.2015    9.8694 C.3     1  UNL1        0.0949
     15 C           9.9491   43.0161    9.8182 C.2     1  UNL1        0.2266
     16 O          10.6997   43.8975   10.3136 O.2     1  UNL1       -0.2748
     17 N          10.4866   41.8371    9.2057 N.am    1  UNL1       -0.2839
     18 H           9.8366   41.1939    8.8409 H       1  UNL1        0.1549
@<TRIPOS>BOND
     1    14    15    1
     2    15    17   am
     3     2     3   ar
     4     4     5   ar
     5     6     1   ar
     6     7     5    1
     7     7     8    1
     8     8     9    1
     9     9    10    1
    10    10    12    1
    11    11    12    1
    12    11     7    1
    13    17     1    1
    14    15    16    2
    15     1     2   ar
    16     3     4   ar
    17     5     6   ar
    18    17    18    1
    19    12    13    1
