@<TRIPOS>MOLECULE
MolPort-002-865-757 5681533 CSSS00138423837 MCULE-7784784848 PubChem-3558481 ZINC000005681533 ZINC05681533
 24 26 0 0 0
SMALL
GASTEIGER

@<TRIPOS>ATOM
      1 O           9.3734   40.2854    4.3232 O.2     1  UNL1       -0.2434
      2 O           7.1069   41.3521    5.5143 O.2     1  UNL1       -0.2660
      3 C          11.7102   41.3457    6.5961 C.ar    1  UNL1        0.1866
      4 C           9.9458   40.7466    5.3462 C.ar    1  UNL1        0.3638
      5 C           7.8135   41.2871    6.5574 C.2     1  UNL1        0.2739
      6 N          11.3102   40.8159    5.4182 N.ar    1  UNL1       -0.1687
      7 N           9.2454   41.1919    6.4307 N.ar    1  UNL1       -0.1919
      8 S          10.3831   41.7231    7.5243 S.2     1  UNL1        0.0367
      9 C           7.1403   41.3119    7.8758 C.ar    1  UNL1        0.0571
     10 C           7.8611   41.6904    9.0192 C.ar    1  UNL1        0.0048
     11 C           7.2350   41.7463   10.2678 C.ar    1  UNL1        0.0002
     12 C           5.8790   41.4314   10.3837 C.ar    1  UNL1        0.0000
     13 C           5.1488   41.0646    9.2507 C.ar    1  UNL1        0.0002
     14 C           5.7762   41.0097    8.0028 C.ar    1  UNL1        0.0048
     15 O          13.3032   43.6941    6.0493 O.2     1  UNL1       -0.2698
     16 C          13.8277   42.7431    6.6911 C.2     1  UNL1        0.2509
     17 N          13.0706   41.5611    6.9817 N.am    1  UNL1       -0.2594
     18 H          13.5206   40.8440    7.4842 H       1  UNL1        0.1571
     19 C          15.2259   42.8477    7.1443 C.ar    1  UNL1        0.0537
     20 C          16.0653   43.8461    6.6284 C.ar    1  UNL1        0.0045
     21 C          17.3919   43.9462    7.0575 C.ar    1  UNL1        0.0001
     22 C          17.8892   43.0486    8.0062 C.ar    1  UNL1        0.0000
     23 C          17.0601   42.0508    8.5256 C.ar    1  UNL1        0.0001
     24 C          15.7334   41.9506    8.0964 C.ar    1  UNL1        0.0045
@<TRIPOS>BOND
     1    16    17   am
     2    16    19    1
     3     3     8   ar
     4     4     6   ar
     5     4     7   ar
     6     5     9    1
     7    10    11   ar
     8    12    13   ar
     9    14     9   ar
    10    20    21   ar
    11    22    23   ar
    12    24    19   ar
    13    17     3    1
    14     7     8   ar
    15     7     5   am
    16    16    15    2
    17     3     6   ar
    18     4     1    2
    19     5     2    2
    20     9    10   ar
    21    11    12   ar
    22    13    14   ar
    23    19    20   ar
    24    21    22   ar
    25    23    24   ar
    26    17    18    1
@<TRIPOS>MOLECULE
MolPort-002-865-757 5681533 CSSS00138423837 MCULE-7784784848 PubChem-3558481 ZINC000005681533 ZINC05681533
 24 26 0 0 0
SMALL
GASTEIGER

@<TRIPOS>ATOM
      1 O          14.1890   38.9449   12.1710 O.2     1  UNL1       -0.2434
      2 O          16.5135   38.3149   10.7950 O.2     1  UNL1       -0.2660
      3 C          11.9543   38.6555    9.5877 C.ar    1  UNL1        0.1866
      4 C          13.6429   38.6900   11.0647 C.ar    1  UNL1        0.3638
      5 C          15.7118   37.7182   10.0251 C.2     1  UNL1        0.2739
      6 N          12.3329   39.0113   10.8360 N.ar    1  UNL1       -0.1687
      7 N          14.3175   38.0800   10.0460 N.ar    1  UNL1       -0.1919
      8 S          13.2343   37.9584    8.7874 S.2     1  UNL1        0.0367
      9 C          16.2380   36.6656    9.1266 C.ar    1  UNL1        0.0571
     10 C          17.5997   36.3279    9.1717 C.ar    1  UNL1        0.0048
     11 C          18.1089   35.3177    8.3505 C.ar    1  UNL1        0.0002
     12 C          17.2590   34.6296    7.4813 C.ar    1  UNL1        0.0000
     13 C          15.8998   34.9493    7.4362 C.ar    1  UNL1        0.0002
     14 C          15.3921   35.9594    8.2584 C.ar    1  UNL1        0.0048
     15 O          11.0483   40.9802    8.1294 O.2     1  UNL1       -0.2698
     16 C          10.2403   40.0292    8.3146 C.2     1  UNL1        0.2509
     17 N          10.6515   38.8593    9.0336 N.am    1  UNL1       -0.2594
     18 H           9.9876   38.1426    9.1552 H       1  UNL1        0.1571
     19 C           8.8667   40.1217    7.7893 C.ar    1  UNL1        0.0537
     20 C           7.9319   40.9736    8.3958 C.ar    1  UNL1        0.0045
     21 C           6.6285   41.0620    7.8983 C.ar    1  UNL1        0.0001
     22 C           6.2501   40.2991    6.7903 C.ar    1  UNL1        0.0000
     23 C           7.1749   39.4477    6.1798 C.ar    1  UNL1        0.0001
     24 C           8.4783   39.3592    6.6773 C.ar    1  UNL1        0.0045
@<TRIPOS>BOND
     1    16    17   am
     2    16    19    1
     3     3     8   ar
     4     4     6   ar
     5     4     7   ar
     6     5     9    1
     7    10    11   ar
     8    12    13   ar
     9    14     9   ar
    10    20    21   ar
    11    22    23   ar
    12    24    19   ar
    13    17     3    1
    14     7     8   ar
    15     7     5   am
    16    16    15    2
    17     3     6   ar
    18     4     1    2
    19     5     2    2
    20     9    10   ar
    21    11    12   ar
    22    13    14   ar
    23    19    20   ar
    24    21    22   ar
    25    23    24   ar
    26    17    18    1
@<TRIPOS>MOLECULE
MolPort-002-865-757 5681533 CSSS00138423837 MCULE-7784784848 PubChem-3558481 ZINC000005681533 ZINC05681533
 24 26 0 0 0
SMALL
GASTEIGER

@<TRIPOS>ATOM
      1 O           7.9884   44.8149    8.8553 O.2     1  UNL1       -0.2434
      2 O           9.0142   44.4575   11.4074 O.2     1  UNL1       -0.2660
      3 C           8.7518   41.7399    7.5466 C.ar    1  UNL1        0.1866
      4 C           8.3321   43.6116    8.7106 C.ar    1  UNL1        0.3638
      5 C           8.8279   43.2379   11.1437 C.2     1  UNL1        0.2739
      6 N           8.3485   43.0283    7.4732 N.ar    1  UNL1       -0.1687
      7 N           8.6970   42.8290    9.7685 N.ar    1  UNL1       -0.1919
      8 S           9.0848   41.3424    9.1266 S.2     1  UNL1        0.0367
      9 C           8.7515   42.2713   12.2626 C.ar    1  UNL1        0.0571
     10 C           9.5744   42.4406   13.3870 C.ar    1  UNL1        0.0048
     11 C           9.4964   41.5538   14.4648 C.ar    1  UNL1        0.0002
     12 C           8.5883   40.4929   14.4318 C.ar    1  UNL1        0.0000
     13 C           7.7561   40.3213   13.3229 C.ar    1  UNL1        0.0002
     14 C           7.8351   41.2092   12.2462 C.ar    1  UNL1        0.0048
     15 O          11.1890   41.1146    6.1251 O.2     1  UNL1       -0.2698
     16 C          10.1141   40.5695    5.7522 C.2     1  UNL1        0.2509
     17 N           8.8842   40.8544    6.4312 N.am    1  UNL1       -0.2594
     18 H           8.0699   40.4071    6.1054 H       1  UNL1        0.1571
     19 C          10.1229   39.6353    4.6126 C.ar    1  UNL1        0.0537
     20 C          11.3251   39.0568    4.1797 C.ar    1  UNL1        0.0045
     21 C          11.3345   38.1705    3.0988 C.ar    1  UNL1        0.0001
     22 C          10.1414   37.8559    2.4425 C.ar    1  UNL1        0.0000
     23 C           8.9391   38.4276    2.8671 C.ar    1  UNL1        0.0001
     24 C           8.9296   39.3140    3.9481 C.ar    1  UNL1        0.0045
@<TRIPOS>BOND
     1    16    17   am
     2    16    19    1
     3     3     8   ar
     4     4     6   ar
     5     4     7   ar
     6     5     9    1
     7    10    11   ar
     8    12    13   ar
     9    14     9   ar
    10    20    21   ar
    11    22    23   ar
    12    24    19   ar
    13    17     3    1
    14     7     8   ar
    15     7     5   am
    16    16    15    2
    17     3     6   ar
    18     4     1    2
    19     5     2    2
    20     9    10   ar
    21    11    12   ar
    22    13    14   ar
    23    19    20   ar
    24    21    22   ar
    25    23    24   ar
    26    17    18    1
@<TRIPOS>MOLECULE
MolPort-002-865-757 5681533 CSSS00138423837 MCULE-7784784848 PubChem-3558481 ZINC000005681533 ZINC05681533
 24 26 0 0 0
SMALL
GASTEIGER

@<TRIPOS>ATOM
      1 O           3.9225   43.4683    8.5587 O.2     1  UNL1       -0.2434
      2 O           6.3717   42.1898    8.3132 O.2     1  UNL1       -0.2660
      3 C           2.8320   41.9662   11.4407 C.ar    1  UNL1        0.1866
      4 C           3.8546   42.8091    9.6301 C.ar    1  UNL1        0.3638
      5 C           6.2445   42.0417    9.5595 C.2     1  UNL1        0.2739
      6 N           2.6825   42.7232   10.3304 N.ar    1  UNL1       -0.1687
      7 N           4.9356   42.1566   10.1503 N.ar    1  UNL1       -0.1919
      8 S           4.3972   41.4133   11.5395 S.2     1  UNL1        0.0367
      9 C           7.4504   41.7540   10.3689 C.ar    1  UNL1        0.0571
     10 C           7.3390   41.6199   11.7616 C.ar    1  UNL1        0.0048
     11 C           8.4619   41.3211   12.5389 C.ar    1  UNL1        0.0002
     12 C           9.7064   41.1455   11.9293 C.ar    1  UNL1        0.0000
     13 C           9.8270   41.2651   10.5427 C.ar    1  UNL1        0.0002
     14 C           8.7032   41.5635    9.7669 C.ar    1  UNL1        0.0048
     15 O           1.6019   43.8265   13.2784 O.2     1  UNL1       -0.2698
     16 C           1.2106   42.6272   13.2790 C.2     1  UNL1        0.2509
     17 N           1.7964   41.6740   12.3829 N.am    1  UNL1       -0.2594
     18 H           1.4608   40.7491   12.4187 H       1  UNL1        0.1571
     19 C           0.1462   42.2039   14.2059 C.ar    1  UNL1        0.0537
     20 C          -0.8086   41.2582   13.8042 C.ar    1  UNL1        0.0045
     21 C          -1.8188   40.8559   14.6828 C.ar    1  UNL1        0.0001
     22 C          -1.8816   41.3964   15.9700 C.ar    1  UNL1        0.0000
     23 C          -0.9345   42.3391   16.3787 C.ar    1  UNL1        0.0001
     24 C           0.0757   42.7414   15.5001 C.ar    1  UNL1        0.0045
@<TRIPOS>BOND
     1    16    17   am
     2    16    19    1
     3     3     8   ar
     4     4     6   ar
     5     4     7   ar
     6     5     9    1
     7    10    11   ar
     8    12    13   ar
     9    14     9   ar
    10    20    21   ar
    11    22    23   ar
    12    24    19   ar
    13    17     3    1
    14     7     8   ar
    15     7     5   am
    16    16    15    2
    17     3     6   ar
    18     4     1    2
    19     5     2    2
    20     9    10   ar
    21    11    12   ar
    22    13    14   ar
    23    19    20   ar
    24    21    22   ar
    25    23    24   ar
    26    17    18    1
@<TRIPOS>MOLECULE
MolPort-002-865-757 5681533 CSSS00138423837 MCULE-7784784848 PubChem-3558481 ZINC000005681533 ZINC05681533
 24 26 0 0 0
SMALL
GASTEIGER

@<TRIPOS>ATOM
      1 O          17.7275   36.8040   10.8378 O.2     1  UNL1       -0.2434
      2 O          15.2934   37.2947   12.0740 O.2     1  UNL1       -0.2660
      3 C          16.5686   35.8412    7.7587 C.ar    1  UNL1        0.1866
      4 C          17.0019   36.5789    9.8329 C.ar    1  UNL1        0.3638
      5 C          14.8997   37.4594   10.8868 C.2     1  UNL1        0.2739
      6 N          17.5182   35.9941    8.7090 N.ar    1  UNL1       -0.1687
      7 N          15.6768   36.9079    9.8064 N.ar    1  UNL1       -0.1919
      8 S          15.1138   36.4218    8.3168 S.2     1  UNL1        0.0367
      9 C          13.6491   38.2158   10.6502 C.ar    1  UNL1        0.0571
     10 C          12.5211   37.5547   10.1396 C.ar    1  UNL1        0.0048
     11 C          11.3236   38.2465    9.9358 C.ar    1  UNL1        0.0002
     12 C          11.2403   39.6055   10.2483 C.ar    1  UNL1        0.0000
     13 C          12.3532   40.2711   10.7679 C.ar    1  UNL1        0.0002
     14 C          13.5497   39.5778   10.9715 C.ar    1  UNL1        0.0048
     15 O          15.9535   33.1276    6.9780 O.2     1  UNL1       -0.2698
     16 C          16.4604   33.9034    6.1221 C.2     1  UNL1        0.2509
     17 N          16.7803   35.2565    6.4706 N.am    1  UNL1       -0.2594
     18 H          17.1752   35.8258    5.7712 H       1  UNL1        0.1571
     19 C          16.7253   33.4160    4.7569 C.ar    1  UNL1        0.0537
     20 C          15.6835   32.8940    3.9761 C.ar    1  UNL1        0.0045
     21 C          15.9337   32.4313    2.6810 C.ar    1  UNL1        0.0001
     22 C          17.2279   32.4874    2.1567 C.ar    1  UNL1        0.0000
     23 C          18.2718   33.0059    2.9274 C.ar    1  UNL1        0.0001
     24 C          18.0217   33.4685    4.2227 C.ar    1  UNL1        0.0045
@<TRIPOS>BOND
     1    16    17   am
     2    16    19    1
     3     3     8   ar
     4     4     6   ar
     5     4     7   ar
     6     5     9    1
     7    10    11   ar
     8    12    13   ar
     9    14     9   ar
    10    20    21   ar
    11    22    23   ar
    12    24    19   ar
    13    17     3    1
    14     7     8   ar
    15     7     5   am
    16    16    15    2
    17     3     6   ar
    18     4     1    2
    19     5     2    2
    20     9    10   ar
    21    11    12   ar
    22    13    14   ar
    23    19    20   ar
    24    21    22   ar
    25    23    24   ar
    26    17    18    1
@<TRIPOS>MOLECULE
MolPort-002-865-757 5681533 CSSS00138423837 MCULE-7784784848 PubChem-3558481 ZINC000005681533 ZINC05681533
 24 26 0 0 0
SMALL
GASTEIGER

@<TRIPOS>ATOM
      1 O           4.8811   41.2634    9.8789 O.2     1  UNL1       -0.2434
      2 O           6.2466   42.4263   11.9947 O.2     1  UNL1       -0.2660
      3 C           7.5467   40.6259    7.8199 C.ar    1  UNL1        0.1866
      4 C           6.0406   41.1066    9.4121 C.ar    1  UNL1        0.3638
      5 C           7.2142   41.7611   11.5334 C.2     1  UNL1        0.2739
      6 N           6.2303   40.7296    8.1108 N.ar    1  UNL1       -0.1687
      7 N           7.1600   41.2953   10.1713 N.ar    1  UNL1       -0.1919
      8 S           8.4522   41.0030    9.1627 S.2     1  UNL1        0.0367
      9 C           8.3721   41.4850   12.4138 C.ar    1  UNL1        0.0571
     10 C           9.6626   41.4144   11.8662 C.ar    1  UNL1        0.0048
     11 C          10.7708   41.1820   12.6860 C.ar    1  UNL1        0.0002
     12 C          10.5997   41.0257   14.0635 C.ar    1  UNL1        0.0000
     13 C           9.3214   41.1055   14.6212 C.ar    1  UNL1        0.0002
     14 C           8.2144   41.3384   13.8001 C.ar    1  UNL1        0.0048
     15 O           9.5470   38.6036    7.3095 O.2     1  UNL1       -0.2698
     16 C           9.0745   39.2475    6.3329 C.2     1  UNL1        0.2509
     17 N           8.0812   40.2590    6.5450 N.am    1  UNL1       -0.2594
     18 H           7.7416   40.7368    5.7541 H       1  UNL1        0.1571
     19 C           9.5465   38.9587    4.9672 C.ar    1  UNL1        0.0537
     20 C          10.2149   39.9436    4.2252 C.ar    1  UNL1        0.0045
     21 C          10.6630   39.6706    2.9295 C.ar    1  UNL1        0.0001
     22 C          10.4461   38.4102    2.3661 C.ar    1  UNL1        0.0000
     23 C           9.7810   37.4230    3.0981 C.ar    1  UNL1        0.0001
     24 C           9.3329   37.6960    4.3938 C.ar    1  UNL1        0.0045
@<TRIPOS>BOND
     1    16    17   am
     2    16    19    1
     3     3     8   ar
     4     4     6   ar
     5     4     7   ar
     6     5     9    1
     7    10    11   ar
     8    12    13   ar
     9    14     9   ar
    10    20    21   ar
    11    22    23   ar
    12    24    19   ar
    13    17     3    1
    14     7     8   ar
    15     7     5   am
    16    16    15    2
    17     3     6   ar
    18     4     1    2
    19     5     2    2
    20     9    10   ar
    21    11    12   ar
    22    13    14   ar
    23    19    20   ar
    24    21    22   ar
    25    23    24   ar
    26    17    18    1
@<TRIPOS>MOLECULE
MolPort-002-865-757 5681533 CSSS00138423837 MCULE-7784784848 PubChem-3558481 ZINC000005681533 ZINC05681533
 24 26 0 0 0
SMALL
GASTEIGER

@<TRIPOS>ATOM
      1 O           5.7975   43.3763    7.1887 O.2     1  UNL1       -0.2434
      2 O           7.8795   41.5556    7.3977 O.2     1  UNL1       -0.2660
      3 C           4.3182   42.8349   10.2333 C.ar    1  UNL1        0.1866
      4 C           5.5515   43.0032    8.3666 C.ar    1  UNL1        0.3638
      5 C           7.6929   41.7194    8.6346 C.2     1  UNL1        0.2739
      6 N           4.3770   43.3414    8.9811 N.ar    1  UNL1       -0.1687
      7 N           6.4355   42.2549    9.0901 N.ar    1  UNL1       -0.1919
      8 S           5.7055   41.9785   10.5608 S.2     1  UNL1        0.0367
      9 C           8.7780   41.3529    9.5728 C.ar    1  UNL1        0.0571
     10 C           9.7678   40.4421    9.1717 C.ar    1  UNL1        0.0048
     11 C          10.8153   40.1053   10.0340 C.ar    1  UNL1        0.0002
     12 C          10.8873   40.6827   11.3040 C.ar    1  UNL1        0.0000
     13 C           9.9142   41.5993   11.7097 C.ar    1  UNL1        0.0002
     14 C           8.8677   41.9353   10.8460 C.ar    1  UNL1        0.0048
     15 O           3.3354   40.8814   12.1226 O.2     1  UNL1       -0.2698
     16 C           2.7645   42.0047   12.0615 C.2     1  UNL1        0.2509
     17 N           3.2219   43.0001   11.1371 N.am    1  UNL1       -0.2594
     18 H           2.7460   43.8618   11.1231 H       1  UNL1        0.1571
     19 C           1.6214   42.2949   12.9449 C.ar    1  UNL1        0.0537
     20 C           0.7880   41.2579   13.3894 C.ar    1  UNL1        0.0045
     21 C          -0.2967   41.5322   14.2274 C.ar    1  UNL1        0.0001
     22 C          -0.5562   42.8458   14.6274 C.ar    1  UNL1        0.0000
     23 C           0.2688   43.8852   14.1894 C.ar    1  UNL1        0.0001
     24 C           1.3536   43.6110   13.3513 C.ar    1  UNL1        0.0045
@<TRIPOS>BOND
     1    16    17   am
     2    16    19    1
     3     3     8   ar
     4     4     6   ar
     5     4     7   ar
     6     5     9    1
     7    10    11   ar
     8    12    13   ar
     9    14     9   ar
    10    20    21   ar
    11    22    23   ar
    12    24    19   ar
    13    17     3    1
    14     7     8   ar
    15     7     5   am
    16    16    15    2
    17     3     6   ar
    18     4     1    2
    19     5     2    2
    20     9    10   ar
    21    11    12   ar
    22    13    14   ar
    23    19    20   ar
    24    21    22   ar
    25    23    24   ar
    26    17    18    1
@<TRIPOS>MOLECULE
MolPort-002-865-757 5681533 CSSS00138423837 MCULE-7784784848 PubChem-3558481 ZINC000005681533 ZINC05681533
 24 26 0 0 0
SMALL
GASTEIGER

@<TRIPOS>ATOM
      1 O          12.1634   42.7576    8.1221 O.2     1  UNL1       -0.2434
      2 O          13.7133   40.4575    8.0880 O.2     1  UNL1       -0.2660
      3 C           9.3999   41.5055    9.7178 C.ar    1  UNL1        0.1866
      4 C          11.3650   42.0302    8.7705 C.ar    1  UNL1        0.3638
      5 C          12.9955   40.1453    9.0774 C.2     1  UNL1        0.2739
      6 N          10.0815   42.4368    9.0134 N.ar    1  UNL1       -0.1687
      7 N          11.7328   40.8124    9.2671 N.ar    1  UNL1       -0.1919
      8 S          10.3827   40.1998   10.0249 S.2     1  UNL1        0.0367
      9 C          13.4813   39.1012   10.0079 C.ar    1  UNL1        0.0571
     10 C          13.0954   37.7650    9.8185 C.ar    1  UNL1        0.0048
     11 C          13.5663   36.7617   10.6705 C.ar    1  UNL1        0.0002
     12 C          14.4346   37.0842   11.7161 C.ar    1  UNL1        0.0000
     13 C          14.8346   38.4090   11.9071 C.ar    1  UNL1        0.0002
     14 C          14.3632   39.4110   11.0540 C.ar    1  UNL1        0.0048
     15 O           7.0664   41.0588    8.0725 O.2     1  UNL1       -0.2698
     16 C           6.9020   41.3891    9.2789 C.2     1  UNL1        0.2509
     17 N           8.0342   41.6202   10.1271 N.am    1  UNL1       -0.2594
     18 H           7.8587   41.8769   11.0612 H       1  UNL1        0.1571
     19 C           5.5391   41.5385    9.8188 C.ar    1  UNL1        0.0537
     20 C           4.5030   42.0192    9.0046 C.ar    1  UNL1        0.0045
     21 C           3.2097   42.1612    9.5158 C.ar    1  UNL1        0.0001
     22 C           2.9427   41.8234   10.8453 C.ar    1  UNL1        0.0000
     23 C           3.9689   41.3437   11.6637 C.ar    1  UNL1        0.0001
     24 C           5.2623   41.2017   11.1525 C.ar    1  UNL1        0.0045
@<TRIPOS>BOND
     1    16    17   am
     2    16    19    1
     3     3     8   ar
     4     4     6   ar
     5     4     7   ar
     6     5     9    1
     7    10    11   ar
     8    12    13   ar
     9    14     9   ar
    10    20    21   ar
    11    22    23   ar
    12    24    19   ar
    13    17     3    1
    14     7     8   ar
    15     7     5   am
    16    16    15    2
    17     3     6   ar
    18     4     1    2
    19     5     2    2
    20     9    10   ar
    21    11    12   ar
    22    13    14   ar
    23    19    20   ar
    24    21    22   ar
    25    23    24   ar
    26    17    18    1
@<TRIPOS>MOLECULE
MolPort-002-865-757 5681533 CSSS00138423837 MCULE-7784784848 PubChem-3558481 ZINC000005681533 ZINC05681533
 24 26 0 0 0
SMALL
GASTEIGER

@<TRIPOS>ATOM
      1 O          14.2454   38.9486   12.1682 O.2     1  UNL1       -0.2434
      2 O          16.3123   37.6324   10.8686 O.2     1  UNL1       -0.2660
      3 C          12.1782   39.4622    9.4823 C.ar    1  UNL1        0.1866
      4 C          13.7062   38.9114   11.0303 C.ar    1  UNL1        0.3638
      5 C          15.4033   37.3468   10.0418 C.2     1  UNL1        0.2739
      6 N          12.5842   39.6455   10.7589 N.ar    1  UNL1       -0.1687
      7 N          14.2014   38.1405   10.0176 N.ar    1  UNL1       -0.1919
      8 S          13.2058   38.4072    8.7100 S.2     1  UNL1        0.0367
      9 C          15.6090   36.2026    9.1250 C.ar    1  UNL1        0.0571
     10 C          16.6886   36.2139    8.2280 C.ar    1  UNL1        0.0048
     11 C          16.9146   35.1302    7.3743 C.ar    1  UNL1        0.0002
     12 C          16.0670   34.0206    7.4149 C.ar    1  UNL1        0.0000
     13 C          14.9962   33.9933    8.3117 C.ar    1  UNL1        0.0002
     14 C          14.7719   35.0775    9.1650 C.ar    1  UNL1        0.0048
     15 O          10.0725   40.8869   10.8561 O.2     1  UNL1       -0.2698
     16 C          10.0176   40.7900    9.5995 C.2     1  UNL1        0.2509
     17 N          11.0425   40.0907    8.8817 N.am    1  UNL1       -0.2594
     18 H          10.9584   40.0392    7.9021 H       1  UNL1        0.1571
     19 C           8.8939   41.3986    8.8657 C.ar    1  UNL1        0.0537
     20 C           9.0344   41.7436    7.5135 C.ar    1  UNL1        0.0045
     21 C           7.9690   42.3210    6.8165 C.ar    1  UNL1        0.0001
     22 C           6.7548   42.5575    7.4667 C.ar    1  UNL1        0.0000
     23 C           6.6059   42.2169    8.8138 C.ar    1  UNL1        0.0001
     24 C           7.6713   41.6395    9.5109 C.ar    1  UNL1        0.0045
@<TRIPOS>BOND
     1    16    17   am
     2    16    19    1
     3     3     8   ar
     4     4     6   ar
     5     4     7   ar
     6     5     9    1
     7    10    11   ar
     8    12    13   ar
     9    14     9   ar
    10    20    21   ar
    11    22    23   ar
    12    24    19   ar
    13    17     3    1
    14     7     8   ar
    15     7     5   am
    16    16    15    2
    17     3     6   ar
    18     4     1    2
    19     5     2    2
    20     9    10   ar
    21    11    12   ar
    22    13    14   ar
    23    19    20   ar
    24    21    22   ar
    25    23    24   ar
    26    17    18    1
@<TRIPOS>MOLECULE
MolPort-002-865-757 5681533 CSSS00138423837 MCULE-7784784848 PubChem-3558481 ZINC000005681533 ZINC05681533
 24 26 0 0 0
SMALL
GASTEIGER

@<TRIPOS>ATOM
      1 O           9.5374   42.1547    5.2652 O.2     1  UNL1       -0.2434
      2 O          11.9284   40.7524    5.3662 O.2     1  UNL1       -0.2660
      3 C           8.2509   41.2196    8.3019 C.ar    1  UNL1        0.1866
      4 C           9.3909   41.6939    6.4285 C.ar    1  UNL1        0.3638
      5 C          11.7405   40.8273    6.6115 C.2     1  UNL1        0.2739
      6 N           8.1869   41.7790    7.0726 N.ar    1  UNL1       -0.1687
      7 N          10.4148   41.0968    7.1066 N.ar    1  UNL1       -0.1919
      8 S           9.7810   40.6276    8.5731 S.2     1  UNL1        0.0367
      9 C          12.8948   40.6339    7.5183 C.ar    1  UNL1        0.0571
     10 C          13.9170   41.5949    7.5596 C.ar    1  UNL1        0.0048
     11 C          15.0006   41.4428    8.4296 C.ar    1  UNL1        0.0002
     12 C          15.0684   40.3313    9.2729 C.ar    1  UNL1        0.0000
     13 C          14.0510   39.3743    9.2487 C.ar    1  UNL1        0.0002
     14 C          12.9679   39.5281    8.3786 C.ar    1  UNL1        0.0048
     15 O           5.7420   42.6444    8.1374 O.2     1  UNL1       -0.2698
     16 C           5.9311   41.8621    9.1089 C.2     1  UNL1        0.2509
     17 N           7.1625   41.1378    9.2263 N.am    1  UNL1       -0.2594
     18 H           7.2669   40.5394   10.0010 H       1  UNL1        0.1571
     19 C           4.8808   41.6923   10.1284 C.ar    1  UNL1        0.0537
     20 C           4.9294   40.6130   11.0230 C.ar    1  UNL1        0.0045
     21 C           3.9335   40.4509   11.9905 C.ar    1  UNL1        0.0001
     22 C           2.8814   41.3672   12.0708 C.ar    1  UNL1        0.0000
     23 C           2.8250   42.4454   11.1837 C.ar    1  UNL1        0.0001
     24 C           3.8209   42.6076   10.2160 C.ar    1  UNL1        0.0045
@<TRIPOS>BOND
     1    16    17   am
     2    16    19    1
     3     3     8   ar
     4     4     6   ar
     5     4     7   ar
     6     5     9    1
     7    10    11   ar
     8    12    13   ar
     9    14     9   ar
    10    20    21   ar
    11    22    23   ar
    12    24    19   ar
    13    17     3    1
    14     7     8   ar
    15     7     5   am
    16    16    15    2
    17     3     6   ar
    18     4     1    2
    19     5     2    2
    20     9    10   ar
    21    11    12   ar
    22    13    14   ar
    23    19    20   ar
    24    21    22   ar
    25    23    24   ar
    26    17    18    1
