@<TRIPOS>MOLECULE
MolPort-002-458-232 2877914 CSSS00159749525 MCULE-9071127759 PubChem-2230166 ZINC000002877914 ZINC02877914
 24 26 0 0 0
SMALL
GASTEIGER

@<TRIPOS>ATOM
      1 C          10.7010   39.6172    7.7942 C.3     1  UNL1        0.0609
      2 C           8.2225   40.1738    7.6367 C.ar    1  UNL1        0.0679
      3 C           7.1039   40.8444    8.1567 C.ar    1  UNL1        0.0044
      4 C           7.2101   41.6279    9.3072 C.ar    1  UNL1        0.0113
      5 C           8.4381   41.7485    9.9570 C.ar    1  UNL1        0.0574
      6 C           9.5604   41.0891    9.4547 C.ar    1  UNL1        0.0074
      7 C           9.4683   40.3075    8.2950 C.ar    1  UNL1       -0.0125
      8 CL          8.5723   42.7266   11.4018 Cl      1  UNL1       -0.0823
      9 F           6.7221   39.1515    6.1172 F       1  UNL1       -0.1659
     10 F           8.6870   39.9273    5.3294 F       1  UNL1       -0.1659
     11 F           8.6313   38.0674    6.5877 F       1  UNL1       -0.1659
     12 C           8.0642   39.3177    6.4034 C.3     1  UNL1        0.4183
     13 C          11.7117   40.6036    7.3112 C.ar    1  UNL1        0.0334
     14 C          11.6491   41.2854    6.1020 C.ar    1  UNL1        0.1034
     15 C          13.6146   42.0494    6.8772 C.ar    1  UNL1        0.1653
     16 N          12.7159   42.0956    5.8685 N.ar    1  UNL1       -0.2227
     17 S          13.1404   41.0050    8.1036 S.2     1  UNL1       -0.0554
     18 C          15.0386   44.0614    6.2645 C.2     1  UNL1        0.2270
     19 N          14.8369   42.7925    6.8985 N.am    1  UNL1       -0.2642
     20 O          14.0945   44.6373    5.6587 O.2     1  UNL1       -0.2747
     21 H          15.5978   42.4021    7.3862 H       1  UNL1        0.1567
     22 C          16.3691   44.7338    6.3660 C.3     1  UNL1        0.0769
     23 C          17.4271   43.8958    5.6708 C.3     1  UNL1        0.0096
     24 C          17.3221   43.8759    7.1786 C.3     1  UNL1        0.0096
@<TRIPOS>BOND
     1    12     9    1
     2    12    10    1
     3    12    11    1
     4    12     2    1
     5     3     4   ar
     6     5     8    1
     7     5     6   ar
     8     7     2   ar
     9     1     7    1
    10     1    13    1
    11    13    17   ar
    12    14    16   ar
    13    15    19    1
    14    15    17   ar
    15    22    18    1
    16    22    23    1
    17    23    24    1
    18    24    22    1
    19    19    18   am
    20     2     3   ar
    21     4     5   ar
    22     6     7   ar
    23    13    14   ar
    24    15    16   ar
    25    18    20    2
    26    19    21    1
@<TRIPOS>MOLECULE
MolPort-002-458-232 2877914 CSSS00159749525 MCULE-9071127759 PubChem-2230166 ZINC000002877914 ZINC02877914
 24 26 0 0 0
SMALL
GASTEIGER

@<TRIPOS>ATOM
      1 C          10.7195   41.1054    8.5769 C.3     1  UNL1        0.0609
      2 C          10.4666   38.5749    8.6780 C.ar    1  UNL1        0.0679
      3 C          10.8650   37.3463    9.2287 C.ar    1  UNL1        0.0044
      4 C          11.8681   37.2880   10.1977 C.ar    1  UNL1        0.0113
      5 C          12.4909   38.4596   10.6271 C.ar    1  UNL1        0.0574
      6 C          12.1081   39.6895   10.0908 C.ar    1  UNL1        0.0074
      7 C          11.0955   39.7616    9.1246 C.ar    1  UNL1       -0.0125
      8 CL         13.7517   38.3882   11.8384 Cl      1  UNL1       -0.0823
      9 F           8.7687   37.3648    7.5565 F       1  UNL1       -0.1659
     10 F           8.4575   39.5683    7.9184 F       1  UNL1       -0.1659
     11 F           9.9304   38.8762    6.3701 F       1  UNL1       -0.1659
     12 C           9.3938   38.5962    7.6161 C.3     1  UNL1        0.4183
     13 C          11.8375   41.6950    7.7831 C.ar    1  UNL1        0.0334
     14 C          11.8124   41.9208    6.4122 C.ar    1  UNL1        0.1034
     15 C          13.9070   42.5874    6.8771 C.ar    1  UNL1        0.1653
     16 N          12.9730   42.4243    5.9136 N.ar    1  UNL1       -0.2227
     17 S          13.3495   42.1156    8.3892 S.2     1  UNL1       -0.0554
     18 C          15.5275   44.4076    6.1614 C.2     1  UNL1        0.2270
     19 N          15.2248   43.0919    6.6411 N.am    1  UNL1       -0.2642
     20 O          14.6085   45.2443    5.9491 O.2     1  UNL1       -0.2747
     21 H          15.9815   42.4888    6.8221 H       1  UNL1        0.1567
     22 C          16.9524   44.8094    5.9592 C.3     1  UNL1        0.0769
     23 C          17.7802   43.6001    5.5628 C.3     1  UNL1        0.0096
     24 C          17.8356   44.1176    6.9818 C.3     1  UNL1        0.0096
@<TRIPOS>BOND
     1    12     9    1
     2    12    10    1
     3    12    11    1
     4    12     2    1
     5     3     4   ar
     6     5     8    1
     7     5     6   ar
     8     7     2   ar
     9     1     7    1
    10     1    13    1
    11    13    17   ar
    12    14    16   ar
    13    15    19    1
    14    15    17   ar
    15    22    18    1
    16    22    23    1
    17    23    24    1
    18    24    22    1
    19    19    18   am
    20     2     3   ar
    21     4     5   ar
    22     6     7   ar
    23    13    14   ar
    24    15    16   ar
    25    18    20    2
    26    19    21    1
@<TRIPOS>MOLECULE
MolPort-002-458-232 2877914 CSSS00159749525 MCULE-9071127759 PubChem-2230166 ZINC000002877914 ZINC02877914
 24 26 0 0 0
SMALL
GASTEIGER

@<TRIPOS>ATOM
      1 C          11.0455   39.6304    8.3357 C.3     1  UNL1        0.0609
      2 C           9.2978   41.0826    9.4818 C.ar    1  UNL1        0.0679
      3 C           7.9859   41.5814    9.5226 C.ar    1  UNL1        0.0044
      4 C           7.0518   41.2185    8.5507 C.ar    1  UNL1        0.0113
      5 C           7.4188   40.3534    7.5203 C.ar    1  UNL1        0.0574
      6 C           8.7181   39.8481    7.4638 C.ar    1  UNL1        0.0074
      7 C           9.6618   40.1975    8.4392 C.ar    1  UNL1       -0.0125
      8 CL          6.2506   39.9009    6.2986 Cl      1  UNL1       -0.0823
      9 F          11.1009   42.5130   10.0365 F       1  UNL1       -0.1659
     10 F           9.6080   41.9930   11.6441 F       1  UNL1       -0.1659
     11 F          11.0854   40.4560   10.9365 F       1  UNL1       -0.1659
     12 C          10.2864   41.5149   10.5377 C.3     1  UNL1        0.4183
     13 C          11.9861   40.6143    7.7235 C.ar    1  UNL1        0.0334
     14 C          11.7884   41.2605    6.5092 C.ar    1  UNL1        0.1034
     15 C          13.8123   42.0694    7.0545 C.ar    1  UNL1        0.1653
     16 N          12.8132   42.0762    6.1440 N.ar    1  UNL1       -0.2227
     17 S          13.4833   41.0550    8.3516 S.2     1  UNL1       -0.0554
     18 C          15.1398   44.0699    6.2256 C.2     1  UNL1        0.2270
     19 N          15.0193   42.8271    6.9282 N.am    1  UNL1       -0.2642
     20 O          14.1335   44.6081    5.6892 O.2     1  UNL1       -0.2747
     21 H          15.8291   42.4669    7.3569 H       1  UNL1        0.1567
     22 C          16.4631   44.7617    6.1717 C.3     1  UNL1        0.0769
     23 C          17.5105   43.8308    5.5875 C.3     1  UNL1        0.0096
     24 C          17.4533   44.0567    7.0810 C.3     1  UNL1        0.0096
@<TRIPOS>BOND
     1    12     9    1
     2    12    10    1
     3    12    11    1
     4    12     2    1
     5     3     4   ar
     6     5     8    1
     7     5     6   ar
     8     7     2   ar
     9     1     7    1
    10     1    13    1
    11    13    17   ar
    12    14    16   ar
    13    15    19    1
    14    15    17   ar
    15    22    18    1
    16    22    23    1
    17    23    24    1
    18    24    22    1
    19    19    18   am
    20     2     3   ar
    21     4     5   ar
    22     6     7   ar
    23    13    14   ar
    24    15    16   ar
    25    18    20    2
    26    19    21    1
@<TRIPOS>MOLECULE
MolPort-002-458-232 2877914 CSSS00159749525 MCULE-9071127759 PubChem-2230166 ZINC000002877914 ZINC02877914
 24 26 0 0 0
SMALL
GASTEIGER

@<TRIPOS>ATOM
      1 C           7.6183   42.9832    9.4957 C.3     1  UNL1        0.0609
      2 C           5.1881   43.3943    8.8612 C.ar    1  UNL1        0.0679
      3 C           3.8355   43.0375    8.9817 C.ar    1  UNL1        0.0044
      4 C           3.4466   41.9699    9.7928 C.ar    1  UNL1        0.0113
      5 C           4.4073   41.2405   10.4925 C.ar    1  UNL1        0.0574
      6 C           5.7561   41.5807   10.3846 C.ar    1  UNL1        0.0074
      7 C           6.1578   42.6565    9.5812 C.ar    1  UNL1       -0.0125
      8 CL          3.9222   39.8992   11.5062 Cl      1  UNL1       -0.0823
      9 F           4.4785   45.3582    7.7456 F       1  UNL1       -0.1659
     10 F           6.5855   45.2777    8.5439 F       1  UNL1       -0.1659
     11 F           6.0197   44.0799    6.7298 F       1  UNL1       -0.1659
     12 C           5.5728   44.5407    7.9573 C.3     1  UNL1        0.4183
     13 C           8.3298   42.0349    8.5890 C.ar    1  UNL1        0.0334
     14 C           9.1379   40.9842    9.0060 C.ar    1  UNL1        0.1034
     15 C           9.3706   40.7930    6.7796 C.ar    1  UNL1        0.1653
     16 N           9.7134   40.2915    7.9872 N.ar    1  UNL1       -0.2227
     17 S           8.3453   42.1164    6.9087 S.2     1  UNL1       -0.0554
     18 C           9.0583   39.4566    4.6423 C.2     1  UNL1        0.2270
     19 N           9.8341   40.2691    5.5315 N.am    1  UNL1       -0.2642
     20 O           7.8567   39.1791    4.9046 O.2     1  UNL1       -0.2747
     21 H          10.7567   40.4834    5.2632 H       1  UNL1        0.1567
     22 C           9.6648   38.9752    3.3644 C.3     1  UNL1        0.0769
     23 C           9.9600   37.4890    3.4591 C.3     1  UNL1        0.0096
     24 C          11.0815   38.4904    3.6140 C.3     1  UNL1        0.0096
@<TRIPOS>BOND
     1    12     9    1
     2    12    10    1
     3    12    11    1
     4    12     2    1
     5     3     4   ar
     6     5     8    1
     7     5     6   ar
     8     7     2   ar
     9     1     7    1
    10     1    13    1
    11    13    17   ar
    12    14    16   ar
    13    15    19    1
    14    15    17   ar
    15    22    18    1
    16    22    23    1
    17    23    24    1
    18    24    22    1
    19    19    18   am
    20     2     3   ar
    21     4     5   ar
    22     6     7   ar
    23    13    14   ar
    24    15    16   ar
    25    18    20    2
    26    19    21    1
@<TRIPOS>MOLECULE
MolPort-002-458-232 2877914 CSSS00159749525 MCULE-9071127759 PubChem-2230166 ZINC000002877914 ZINC02877914
 24 26 0 0 0
SMALL
GASTEIGER

@<TRIPOS>ATOM
      1 C          12.7729   41.9842    6.4210 C.3     1  UNL1        0.0609
      2 C          15.0680   43.0230    6.7826 C.ar    1  UNL1        0.0679
      3 C          16.2975   43.0199    7.4607 C.ar    1  UNL1        0.0044
      4 C          16.5713   42.0655    8.4419 C.ar    1  UNL1        0.0113
      5 C          15.6156   41.1016    8.7621 C.ar    1  UNL1        0.0574
      6 C          14.3882   41.0895    8.0987 C.ar    1  UNL1        0.0074
      7 C          14.1057   42.0365    7.1050 C.ar    1  UNL1       -0.0125
      8 CL         15.9551   39.9071    9.9949 Cl      1  UNL1       -0.0823
      9 F          15.5850   45.1940    5.9924 F       1  UNL1       -0.1659
     10 F          15.0940   43.5906    4.4853 F       1  UNL1       -0.1659
     11 F          13.4705   44.4752    5.7610 F       1  UNL1       -0.1659
     12 C          14.7993   44.0844    5.7432 C.3     1  UNL1        0.4183
     13 C          11.6602   41.9261    7.4140 C.ar    1  UNL1        0.0334
     14 C          11.6833   42.5081    8.6757 C.ar    1  UNL1        0.1034
     15 C           9.6715   41.5102    8.7453 C.ar    1  UNL1        0.1653
     16 N          10.5649   42.2741    9.4129 N.ar    1  UNL1       -0.2227
     17 S          10.2180   41.0827    7.2161 S.2     1  UNL1       -0.0554
     18 C           7.3071   41.9738    9.5490 C.2     1  UNL1        0.2270
     19 N           8.4092   41.0992    9.2786 N.am    1  UNL1       -0.2642
     20 O           7.3793   43.2040    9.2824 O.2     1  UNL1       -0.2747
     21 H           8.2886   40.1420    9.4748 H       1  UNL1        0.1567
     22 C           6.0393   41.4126   10.1060 C.3     1  UNL1        0.0769
     23 C           5.0594   41.1313    8.9810 C.3     1  UNL1        0.0096
     24 C           4.8888   42.3656    9.8366 C.3     1  UNL1        0.0096
@<TRIPOS>BOND
     1    12     9    1
     2    12    10    1
     3    12    11    1
     4    12     2    1
     5     3     4   ar
     6     5     8    1
     7     5     6   ar
     8     7     2   ar
     9     1     7    1
    10     1    13    1
    11    13    17   ar
    12    14    16   ar
    13    15    19    1
    14    15    17   ar
    15    22    18    1
    16    22    23    1
    17    23    24    1
    18    24    22    1
    19    19    18   am
    20     2     3   ar
    21     4     5   ar
    22     6     7   ar
    23    13    14   ar
    24    15    16   ar
    25    18    20    2
    26    19    21    1
@<TRIPOS>MOLECULE
MolPort-002-458-232 2877914 CSSS00159749525 MCULE-9071127759 PubChem-2230166 ZINC000002877914 ZINC02877914
 24 26 0 0 0
SMALL
GASTEIGER

@<TRIPOS>ATOM
      1 C          10.8252   39.5381    7.9702 C.3     1  UNL1        0.0609
      2 C           8.3695   40.1418    7.6834 C.ar    1  UNL1        0.0679
      3 C           7.2521   40.8758    8.1126 C.ar    1  UNL1        0.0044
      4 C           7.3400   41.7391    9.2061 C.ar    1  UNL1        0.0113
      5 C           8.5479   41.8773    9.8894 C.ar    1  UNL1        0.0574
      6 C           9.6685   41.1556    9.4771 C.ar    1  UNL1        0.0074
      7 C           9.5951   40.2933    8.3748 C.ar    1  UNL1       -0.0125
      8 CL          8.6589   42.9556   11.2630 Cl      1  UNL1       -0.0823
      9 F           8.9759   39.6682    5.4445 F       1  UNL1       -0.1659
     10 F           8.6816   37.9430    6.8659 F       1  UNL1       -0.1659
     11 F           6.9089   39.0965    6.1091 F       1  UNL1       -0.1659
     12 C           8.2304   39.2013    6.5107 C.3     1  UNL1        0.4183
     13 C          11.9266   40.4694    7.5864 C.ar    1  UNL1        0.0334
     14 C          11.9271   41.2871    6.4629 C.ar    1  UNL1        0.1034
     15 C          13.9615   41.7621    7.2897 C.ar    1  UNL1        0.1653
     16 N          13.0679   42.0104    6.3062 N.ar    1  UNL1       -0.2227
     17 S          13.3910   40.6365    8.3975 S.2     1  UNL1       -0.0554
     18 C          16.3224   41.9213    8.2129 C.2     1  UNL1        0.2270
     19 N          15.2514   42.3749    7.3762 N.am    1  UNL1       -0.2642
     20 O          16.1936   40.8863    8.9214 O.2     1  UNL1       -0.2747
     21 H          15.4156   43.1691    6.8182 H       1  UNL1        0.1567
     22 C          17.6245   42.6541    8.2068 C.3     1  UNL1        0.0769
     23 C          17.4790   43.9745    8.9416 C.3     1  UNL1        0.0096
     24 C          17.4852   43.9511    7.4303 C.3     1  UNL1        0.0096
@<TRIPOS>BOND
     1    12     9    1
     2    12    10    1
     3    12    11    1
     4    12     2    1
     5     3     4   ar
     6     5     8    1
     7     5     6   ar
     8     7     2   ar
     9     1     7    1
    10     1    13    1
    11    13    17   ar
    12    14    16   ar
    13    15    19    1
    14    15    17   ar
    15    22    18    1
    16    22    23    1
    17    23    24    1
    18    24    22    1
    19    19    18   am
    20     2     3   ar
    21     4     5   ar
    22     6     7   ar
    23    13    14   ar
    24    15    16   ar
    25    18    20    2
    26    19    21    1
@<TRIPOS>MOLECULE
MolPort-002-458-232 2877914 CSSS00159749525 MCULE-9071127759 PubChem-2230166 ZINC000002877914 ZINC02877914
 24 26 0 0 0
SMALL
GASTEIGER

@<TRIPOS>ATOM
      1 C           8.8375   41.0294    7.3418 C.3     1  UNL1        0.0609
      2 C           7.1991   41.5617    9.2152 C.ar    1  UNL1        0.0679
      3 C           6.9562   41.7466   10.5857 C.ar    1  UNL1        0.0044
      4 C           7.9855   41.6136   11.5193 C.ar    1  UNL1        0.0113
      5 C           9.2736   41.2891   11.0946 C.ar    1  UNL1        0.0574
      6 C           9.5334   41.1015    9.7367 C.ar    1  UNL1        0.0074
      7 C           8.5103   41.2419    8.7892 C.ar    1  UNL1       -0.0125
      8 CL         10.5642   41.1175   12.2637 Cl      1  UNL1       -0.0823
      9 F           4.8993   42.0349    8.9117 F       1  UNL1       -0.1659
     10 F           6.3485   42.6719    7.3062 F       1  UNL1       -0.1659
     11 F           5.8356   40.5005    7.5662 F       1  UNL1       -0.1659
     12 C           6.0562   41.6919    8.2374 C.3     1  UNL1        0.4183
     13 C          10.2640   41.3639    7.0577 C.ar    1  UNL1        0.0334
     14 C          11.0370   40.7859    6.0581 C.ar    1  UNL1        0.1034
     15 C          12.5671   42.1338    7.0014 C.ar    1  UNL1        0.1653
     16 N          12.3236   41.2252    6.0306 N.ar    1  UNL1       -0.2227
     17 S          11.2102   42.4369    7.9430 S.2     1  UNL1       -0.0554
     18 C          14.3569   43.8466    6.4408 C.2     1  UNL1        0.2270
     19 N          13.8355   42.7600    7.2155 N.am    1  UNL1       -0.2642
     20 O          13.6780   44.3598    5.5105 O.2     1  UNL1       -0.2747
     21 H          14.3927   42.4180    7.9515 H       1  UNL1        0.1567
     22 C          15.6997   44.4116    6.7726 C.3     1  UNL1        0.0769
     23 C          16.7434   43.8615    5.8171 C.3     1  UNL1        0.0096
     24 C          16.6339   43.3003    7.2162 C.3     1  UNL1        0.0096
@<TRIPOS>BOND
     1    12     9    1
     2    12    10    1
     3    12    11    1
     4    12     2    1
     5     3     4   ar
     6     5     8    1
     7     5     6   ar
     8     7     2   ar
     9     1     7    1
    10     1    13    1
    11    13    17   ar
    12    14    16   ar
    13    15    19    1
    14    15    17   ar
    15    22    18    1
    16    22    23    1
    17    23    24    1
    18    24    22    1
    19    19    18   am
    20     2     3   ar
    21     4     5   ar
    22     6     7   ar
    23    13    14   ar
    24    15    16   ar
    25    18    20    2
    26    19    21    1
@<TRIPOS>MOLECULE
MolPort-002-458-232 2877914 CSSS00159749525 MCULE-9071127759 PubChem-2230166 ZINC000002877914 ZINC02877914
 24 26 0 0 0
SMALL
GASTEIGER

@<TRIPOS>ATOM
      1 C          10.6441   40.1547    7.9019 C.3     1  UNL1        0.0609
      2 C           9.3479   41.3365    9.7459 C.ar    1  UNL1        0.0679
      3 C           8.3003   42.1920   10.1227 C.ar    1  UNL1        0.0044
      4 C           7.4645   42.7658    9.1630 C.ar    1  UNL1        0.0113
      5 C           7.6681   42.4947    7.8102 C.ar    1  UNL1        0.0574
      6 C           8.7043   41.6470    7.4174 C.ar    1  UNL1        0.0074
      7 C           9.5437   41.0573    8.3723 C.ar    1  UNL1       -0.0125
      8 CL          6.6244   43.2165    6.6054 Cl      1  UNL1       -0.0823
      9 F          10.5242   39.4312   10.5148 F       1  UNL1       -0.1659
     10 F          11.4278   41.4665   10.8672 F       1  UNL1       -0.1659
     11 F           9.6404   40.8044   12.0558 F       1  UNL1       -0.1659
     12 C          10.2448   40.7522   10.8105 C.3     1  UNL1        0.4183
     13 C          11.8423   40.9398    7.4830 C.ar    1  UNL1        0.0334
     14 C          11.9691   41.6247    6.2806 C.ar    1  UNL1        0.1034
     15 C          13.9982   42.0124    7.1640 C.ar    1  UNL1        0.1653
     16 N          13.1771   42.2257    6.1115 N.ar    1  UNL1       -0.2227
     17 S          13.2771   41.0697    8.3518 S.2     1  UNL1       -0.0554
     18 C          16.3469   42.0076    8.1307 C.2     1  UNL1        0.2270
     19 N          15.3332   42.5182    7.2564 N.am    1  UNL1       -0.2642
     20 O          16.1188   41.0135    8.8720 O.2     1  UNL1       -0.2747
     21 H          15.5738   43.2752    6.6747 H       1  UNL1        0.1567
     22 C          17.7060   42.6286    8.1267 C.3     1  UNL1        0.0769
     23 C          17.6633   43.9724    8.8317 C.3     1  UNL1        0.0096
     24 C          17.6850   43.9152    7.3214 C.3     1  UNL1        0.0096
@<TRIPOS>BOND
     1    12     9    1
     2    12    10    1
     3    12    11    1
     4    12     2    1
     5     3     4   ar
     6     5     8    1
     7     5     6   ar
     8     7     2   ar
     9     1     7    1
    10     1    13    1
    11    13    17   ar
    12    14    16   ar
    13    15    19    1
    14    15    17   ar
    15    22    18    1
    16    22    23    1
    17    23    24    1
    18    24    22    1
    19    19    18   am
    20     2     3   ar
    21     4     5   ar
    22     6     7   ar
    23    13    14   ar
    24    15    16   ar
    25    18    20    2
    26    19    21    1
@<TRIPOS>MOLECULE
MolPort-002-458-232 2877914 CSSS00159749525 MCULE-9071127759 PubChem-2230166 ZINC000002877914 ZINC02877914
 24 26 0 0 0
SMALL
GASTEIGER

@<TRIPOS>ATOM
      1 C          11.0960   39.5427    8.2338 C.3     1  UNL1        0.0609
      2 C           9.2867   40.3630    6.6430 C.ar    1  UNL1        0.0679
      3 C           8.2913   41.3040    6.3343 C.ar    1  UNL1        0.0044
      4 C           8.0221   42.3694    7.1951 C.ar    1  UNL1        0.0113
      5 C           8.7431   42.5064    8.3809 C.ar    1  UNL1        0.0574
      6 C           9.7357   41.5806    8.7041 C.ar    1  UNL1        0.0074
      7 C          10.0217   40.5124    7.8432 C.ar    1  UNL1       -0.0125
      8 CL          8.4041   43.8387    9.4635 Cl      1  UNL1       -0.0823
      9 F          10.8468   39.2346    5.2655 F       1  UNL1       -0.1659
     10 F           9.2894   38.0150    6.3474 F       1  UNL1       -0.1659
     11 F           8.7059   39.2878    4.5909 F       1  UNL1       -0.1659
     12 C           9.5343   39.2116    5.6985 C.3     1  UNL1        0.4183
     13 C          12.4374   40.1972    8.2352 C.ar    1  UNL1        0.0334
     14 C          13.4618   39.9190    9.1319 C.ar    1  UNL1        0.1034
     15 C          14.4261   41.5596    7.9376 C.ar    1  UNL1        0.1653
     16 N          14.5729   40.6829    8.9560 N.ar    1  UNL1       -0.2227
     17 S          12.9189   41.4388    7.2072 S.2     1  UNL1       -0.0554
     18 C          15.1799   43.7120    6.8194 C.2     1  UNL1        0.2270
     19 N          15.4303   42.4941    7.5312 N.am    1  UNL1       -0.2642
     20 O          14.0028   44.0622    6.5339 O.2     1  UNL1       -0.2747
     21 H          16.3650   42.2841    7.7581 H       1  UNL1        0.1567
     22 C          16.3233   44.6027    6.4562 C.3     1  UNL1        0.0769
     23 C          17.2970   43.8566    5.5618 C.3     1  UNL1        0.0096
     24 C          17.6150   44.0461    7.0272 C.3     1  UNL1        0.0096
@<TRIPOS>BOND
     1    12     9    1
     2    12    10    1
     3    12    11    1
     4    12     2    1
     5     3     4   ar
     6     5     8    1
     7     5     6   ar
     8     7     2   ar
     9     1     7    1
    10     1    13    1
    11    13    17   ar
    12    14    16   ar
    13    15    19    1
    14    15    17   ar
    15    22    18    1
    16    22    23    1
    17    23    24    1
    18    24    22    1
    19    19    18   am
    20     2     3   ar
    21     4     5   ar
    22     6     7   ar
    23    13    14   ar
    24    15    16   ar
    25    18    20    2
    26    19    21    1
@<TRIPOS>MOLECULE
MolPort-002-458-232 2877914 CSSS00159749525 MCULE-9071127759 PubChem-2230166 ZINC000002877914 ZINC02877914
 24 26 0 0 0
SMALL
GASTEIGER

@<TRIPOS>ATOM
      1 C           7.4665   42.9176    9.2183 C.3     1  UNL1        0.0609
      2 C           4.9858   43.3053    8.8022 C.ar    1  UNL1        0.0679
      3 C           3.6516   42.9601    9.0711 C.ar    1  UNL1        0.0044
      4 C           3.3444   41.9364    9.9690 C.ar    1  UNL1        0.0113
      5 C           4.3693   41.2395   10.6084 C.ar    1  UNL1        0.0574
      6 C           5.7009   41.5688   10.3532 C.ar    1  UNL1        0.0074
      7 C           6.0216   42.6011    9.4612 C.ar    1  UNL1       -0.0125
      8 CL          3.9863   39.9529   11.7308 Cl      1  UNL1       -0.0823
      9 F           4.1129   45.0727    7.4909 F       1  UNL1       -0.1659
     10 F           6.1837   45.2965    8.3541 F       1  UNL1       -0.1659
     11 F           5.8210   43.8884    6.6419 F       1  UNL1       -0.1659
     12 C           5.2797   44.4031    7.8084 C.3     1  UNL1        0.4183
     13 C           8.2094   41.7124    8.7456 C.ar    1  UNL1        0.0334
     14 C           7.7260   40.7819    7.8338 C.ar    1  UNL1        0.1034
     15 C           9.7112   39.8507    8.3232 C.ar    1  UNL1        0.1653
     16 N           8.5743   39.7453    7.5997 N.ar    1  UNL1       -0.2227
     17 S           9.7247   41.2241    9.2893 S.2     1  UNL1       -0.0554
     18 C          11.6221   38.5645    9.3935 C.2     1  UNL1        0.2270
     19 N          10.7789   38.8993    8.2846 N.am    1  UNL1       -0.2642
     20 O          11.4351   39.0852   10.5265 O.2     1  UNL1       -0.2747
     21 H          10.9472   38.4393    7.4306 H       1  UNL1        0.1567
     22 C          12.7034   37.5483    9.2179 C.3     1  UNL1        0.0769
     23 C          12.3486   36.2792    9.9718 C.3     1  UNL1        0.0096
     24 C          13.3525   37.2462   10.5564 C.3     1  UNL1        0.0096
@<TRIPOS>BOND
     1    12     9    1
     2    12    10    1
     3    12    11    1
     4    12     2    1
     5     3     4   ar
     6     5     8    1
     7     5     6   ar
     8     7     2   ar
     9     1     7    1
    10     1    13    1
    11    13    17   ar
    12    14    16   ar
    13    15    19    1
    14    15    17   ar
    15    22    18    1
    16    22    23    1
    17    23    24    1
    18    24    22    1
    19    19    18   am
    20     2     3   ar
    21     4     5   ar
    22     6     7   ar
    23    13    14   ar
    24    15    16   ar
    25    18    20    2
    26    19    21    1
