@<TRIPOS>MOLECULE
MolPort-002-859-470 CSSS00138420674 MCULE-7654401932
 27 29 0 0 0
SMALL
GASTEIGER

@<TRIPOS>ATOM
      1 C          12.4697   42.0401    6.2156 C.ar    1  UNL1        0.2420
      2 C          14.4078   42.4795    6.8307 C.ar    1  UNL1        0.2554
      3 C          16.4580   42.4742    7.9560 C.ar    1  UNL1        0.1034
      4 C          15.9963   41.4410    8.7949 C.ar    1  UNL1        0.0391
      5 C          14.6908   40.9487    8.6129 C.ar    1  UNL1        0.1048
      6 N          12.7237   41.2011    7.2485 N.ar    1  UNL1       -0.1271
      7 N          13.9533   41.5015    7.6163 N.ar    1  UNL1       -0.1944
      8 N          13.5064   42.8689    5.9136 N.ar    1  UNL1       -0.1757
      9 N          15.6556   42.9865    6.9774 N.ar    1  UNL1       -0.2083
     10 C          14.1336   39.8214    9.4416 C.3     1  UNL1        0.2058
     11 C          15.0099   38.5751    9.4770 C.3     1  UNL1        0.0540
     12 O          12.7782   39.5205    9.0978 O.3     1  UNL1       -0.4732
     13 C          11.6408   40.0504    9.7255 C.ar    1  UNL1        0.1393
     14 C          10.4240   40.2208    9.0474 C.ar    1  UNL1        0.0432
     15 C           9.3142   40.7527    9.7086 C.ar    1  UNL1        0.0784
     16 C           9.4034   41.1212   11.0576 C.ar    1  UNL1        0.2903
     17 C          10.6194   40.9487   11.7351 C.ar    1  UNL1        0.0784
     18 C          11.7288   40.4167   11.0720 C.ar    1  UNL1        0.0432
     19 O           8.2332   41.7280   13.1080 O.co2   1  UNL1       -0.5760
     20 O           7.2846   42.0932   11.0848 O.2     1  UNL1        0.0415
     21 N           8.2627   41.6673   11.7335 N.pl3   1  UNL1        0.0809
     22 N          11.2189   42.0382    5.5183 N.pl3   1  UNL1       -0.2618
     23 H          10.7426   42.8968    5.4461 H       1  UNL1        0.1567
     24 C          10.6014   40.8943    4.9170 C.2     1  UNL1        0.2080
     25 N           9.3196   40.7306    4.9289 N.2     1  UNL1       -0.0644
     26 C           9.4800   38.9085    3.3503 C.3     1  UNL1        0.2885
     27 O           8.7623   39.6202    4.3418 O.2     1  UNL1       -0.3720
@<TRIPOS>UNITY_ATOM_ATTR
19 1
charge -1
21 1
charge 1
@<TRIPOS>BOND
     1    26    27    1
     2    24    22    1
     3     1     8   ar
     4     2     9   ar
     5     3     4   ar
     6     5     7   ar
     7    10     5    1
     8    10    11    1
     9    10    12    1
    10    13    12    1
    11    14    15   ar
    12    16    17   ar
    13    16    21    1
    14    18    13   ar
    15    27    25    1
    16    22     1    1
    17     7     6   ar
    18     7     2   ar
    19    21    19    1
    20    24    25    2
    21     1     6   ar
    22     2     8   ar
    23     3     9   ar
    24     4     5   ar
    25    13    14   ar
    26    15    16   ar
    27    17    18   ar
    28    21    20    2
    29    22    23    1
@<TRIPOS>MOLECULE
MolPort-002-859-470 CSSS00138420674 MCULE-7654401932
 27 29 0 0 0
SMALL
GASTEIGER

@<TRIPOS>ATOM
      1 C          17.0247   39.8194    9.8999 C.ar    1  UNL1        0.2420
      2 C          16.0033   38.2416   10.7914 C.ar    1  UNL1        0.2554
      3 C          14.3229   36.8461   11.6273 C.ar    1  UNL1        0.1034
      4 C          13.3472   37.7816   11.2308 C.ar    1  UNL1        0.0391
      5 C          13.7603   38.9723   10.6052 C.ar    1  UNL1        0.1048
      6 N          15.7131   40.1532    9.8394 N.ar    1  UNL1       -0.1271
      7 N          15.0931   39.1394   10.4096 N.ar    1  UNL1       -0.1944
      8 N          17.2586   38.6172   10.4941 N.ar    1  UNL1       -0.1757
      9 N          15.6481   37.0861   11.4033 N.ar    1  UNL1       -0.2083
     10 C          12.7802   40.0065   10.1176 C.3     1  UNL1        0.2058
     11 C          11.4371   39.9879   10.8373 C.3     1  UNL1        0.0540
     12 O          12.6326   39.9786    8.6951 O.3     1  UNL1       -0.4732
     13 C          13.0265   40.9971    7.8143 C.ar    1  UNL1        0.1393
     14 C          12.2285   41.3996    6.7322 C.ar    1  UNL1        0.0432
     15 C          12.6572   42.4180    5.8774 C.ar    1  UNL1        0.0784
     16 C          13.8893   43.0503    6.0916 C.ar    1  UNL1        0.2903
     17 C          14.6853   42.6488    7.1745 C.ar    1  UNL1        0.0784
     18 C          14.2550   41.6295    8.0286 C.ar    1  UNL1        0.0432
     19 O          14.8848   43.7878    3.9924 O.co2   1  UNL1       -0.5760
     20 O          14.2077   45.2934    5.5421 O.2     1  UNL1        0.0415
     21 N          14.3270   44.0951    5.2123 N.pl3   1  UNL1        0.0809
     22 N          18.0547   40.6674    9.3796 N.pl3   1  UNL1       -0.2618
     23 H          18.9846   40.4378    9.6076 H       1  UNL1        0.1567
     24 C          17.8482   41.8208    8.5561 C.2     1  UNL1        0.2080
     25 N          17.5855   42.9793    9.0647 N.2     1  UNL1       -0.0644
     26 C          17.8965   44.0473    6.9199 C.3     1  UNL1        0.2885
     27 O          17.3933   44.0639    8.2431 O.2     1  UNL1       -0.3720
@<TRIPOS>UNITY_ATOM_ATTR
19 1
charge -1
21 1
charge 1
@<TRIPOS>BOND
     1    26    27    1
     2    24    22    1
     3     1     8   ar
     4     2     9   ar
     5     3     4   ar
     6     5     7   ar
     7    10     5    1
     8    10    11    1
     9    10    12    1
    10    13    12    1
    11    14    15   ar
    12    16    17   ar
    13    16    21    1
    14    18    13   ar
    15    27    25    1
    16    22     1    1
    17     7     6   ar
    18     7     2   ar
    19    21    19    1
    20    24    25    2
    21     1     6   ar
    22     2     8   ar
    23     3     9   ar
    24     4     5   ar
    25    13    14   ar
    26    15    16   ar
    27    17    18   ar
    28    21    20    2
    29    22    23    1
@<TRIPOS>MOLECULE
MolPort-002-859-470 CSSS00138420674 MCULE-7654401932
 27 29 0 0 0
SMALL
GASTEIGER

@<TRIPOS>ATOM
      1 C          12.2999   41.7178    6.3818 C.ar    1  UNL1        0.2420
      2 C          14.2269   42.0432    7.0947 C.ar    1  UNL1        0.2554
      3 C          16.2115   41.9232    8.3261 C.ar    1  UNL1        0.1034
      4 C          15.6436   40.9292    9.1469 C.ar    1  UNL1        0.0391
      5 C          14.3212   40.5165    8.9002 C.ar    1  UNL1        0.1048
      6 N          12.4472   40.8755    7.4326 N.ar    1  UNL1       -0.1271
      7 N          13.6723   41.1033    7.8623 N.ar    1  UNL1       -0.1944
      8 N          13.4003   42.4780    6.1288 N.ar    1  UNL1       -0.1757
      9 N          15.4945   42.4738    7.3032 N.ar    1  UNL1       -0.2083
     10 C          13.6528   39.4343    9.7064 C.3     1  UNL1        0.2058
     11 C          12.7192   39.9482   10.7958 C.3     1  UNL1        0.0540
     12 O          14.5920   38.4777   10.2053 O.3     1  UNL1       -0.4732
     13 C          14.7644   37.1735    9.7179 C.ar    1  UNL1        0.1393
     14 C          15.9447   36.7646    9.0779 C.ar    1  UNL1        0.0432
     15 C          16.0768   35.4563    8.6062 C.ar    1  UNL1        0.0784
     16 C          15.0320   34.5366    8.7678 C.ar    1  UNL1        0.2903
     17 C          13.8535   34.9455    9.4093 C.ar    1  UNL1        0.0784
     18 C          13.7229   36.2549    9.8804 C.ar    1  UNL1        0.0432
     19 O          16.2656   32.8378    7.5293 O.co2   1  UNL1       -0.5760
     20 O          14.3005   32.3353    8.5356 O.2     1  UNL1        0.0415
     21 N          15.1703   33.1945    8.2821 N.pl3   1  UNL1        0.0809
     22 N          11.0893   41.7859    5.6198 N.pl3   1  UNL1       -0.2618
     23 H          10.6093   42.6454    5.6134 H       1  UNL1        0.1567
     24 C          10.5170   40.7108    4.8663 C.2     1  UNL1        0.2080
     25 N           9.2418   40.5028    4.8420 N.2     1  UNL1       -0.0644
     26 C           9.5308   38.8187    3.1338 C.3     1  UNL1        0.2885
     27 O           8.7285   39.4610    4.1075 O.2     1  UNL1       -0.3720
@<TRIPOS>UNITY_ATOM_ATTR
19 1
charge -1
21 1
charge 1
@<TRIPOS>BOND
     1    26    27    1
     2    24    22    1
     3     1     8   ar
     4     2     9   ar
     5     3     4   ar
     6     5     7   ar
     7    10     5    1
     8    10    11    1
     9    10    12    1
    10    13    12    1
    11    14    15   ar
    12    16    17   ar
    13    16    21    1
    14    18    13   ar
    15    27    25    1
    16    22     1    1
    17     7     6   ar
    18     7     2   ar
    19    21    19    1
    20    24    25    2
    21     1     6   ar
    22     2     8   ar
    23     3     9   ar
    24     4     5   ar
    25    13    14   ar
    26    15    16   ar
    27    17    18   ar
    28    21    20    2
    29    22    23    1
@<TRIPOS>MOLECULE
MolPort-002-859-470 CSSS00138420674 MCULE-7654401932
 27 29 0 0 0
SMALL
GASTEIGER

@<TRIPOS>ATOM
      1 C          13.1646   42.5550    7.7763 C.ar    1  UNL1        0.2420
      2 C          11.6125   42.6954    9.1543 C.ar    1  UNL1        0.2554
      3 C          10.1010   42.2470   10.8817 C.ar    1  UNL1        0.1034
      4 C          10.7062   40.9916   11.0870 C.ar    1  UNL1        0.0391
      5 C          11.7904   40.6173   10.2720 C.ar    1  UNL1        0.1048
      6 N          13.1882   41.3928    8.4721 N.ar    1  UNL1       -0.1271
      7 N          12.1978   41.5099    9.3340 N.ar    1  UNL1       -0.1944
      8 N          12.1842   43.4123    8.1721 N.ar    1  UNL1       -0.1757
      9 N          10.5616   43.0910    9.9125 N.ar    1  UNL1       -0.2083
     10 C          12.5167   39.3101   10.4501 C.3     1  UNL1        0.2058
     11 C          14.0256   39.4471   10.6146 C.3     1  UNL1        0.0540
     12 O          12.1664   38.3587    9.4411 O.3     1  UNL1       -0.4732
     13 C          11.2789   38.5863    8.3787 C.ar    1  UNL1        0.1393
     14 C           9.9346   38.1861    8.4289 C.ar    1  UNL1        0.0432
     15 C           9.0828   38.4310    7.3490 C.ar    1  UNL1        0.0784
     16 C           9.5612   39.0805    6.2031 C.ar    1  UNL1        0.2903
     17 C          10.9044   39.4819    6.1546 C.ar    1  UNL1        0.0784
     18 C          11.7552   39.2358    7.2358 C.ar    1  UNL1        0.0432
     19 O           8.8621   38.6629    3.9056 O.co2   1  UNL1       -0.5760
     20 O           7.7522   40.1542    5.1984 O.2     1  UNL1        0.0415
     21 N           8.6847   39.3302    5.0960 N.pl3   1  UNL1        0.0809
     22 N          14.0955   42.8362    6.7251 N.pl3   1  UNL1       -0.2618
     23 H          13.7598   42.7846    5.8010 H       1  UNL1        0.1567
     24 C          15.4729   43.1861    6.9028 C.2     1  UNL1        0.2080
     25 N          15.8701   44.4155    6.8710 N.2     1  UNL1       -0.0644
     26 C          18.0246   43.8508    7.8074 C.3     1  UNL1        0.2885
     27 O          17.2001   44.7135    7.0455 O.2     1  UNL1       -0.3720
@<TRIPOS>UNITY_ATOM_ATTR
19 1
charge -1
21 1
charge 1
@<TRIPOS>BOND
     1    26    27    1
     2    24    22    1
     3     1     8   ar
     4     2     9   ar
     5     3     4   ar
     6     5     7   ar
     7    10     5    1
     8    10    11    1
     9    10    12    1
    10    13    12    1
    11    14    15   ar
    12    16    17   ar
    13    16    21    1
    14    18    13   ar
    15    27    25    1
    16    22     1    1
    17     7     6   ar
    18     7     2   ar
    19    21    19    1
    20    24    25    2
    21     1     6   ar
    22     2     8   ar
    23     3     9   ar
    24     4     5   ar
    25    13    14   ar
    26    15    16   ar
    27    17    18   ar
    28    21    20    2
    29    22    23    1
@<TRIPOS>MOLECULE
MolPort-002-859-470 CSSS00138420674 MCULE-7654401932
 27 29 0 0 0
SMALL
GASTEIGER

@<TRIPOS>ATOM
      1 C          12.1834   42.2453    7.0125 C.ar    1  UNL1        0.2420
      2 C          11.3935   42.3592    8.9336 C.ar    1  UNL1        0.2554
      3 C          10.1093   41.9974   10.8545 C.ar    1  UNL1        0.1034
      4 C           9.3637   41.0158   10.1726 C.ar    1  UNL1        0.0391
      5 C           9.6744   40.7364    8.8290 C.ar    1  UNL1        0.1048
      6 N          11.1774   41.3386    7.0477 N.ar    1  UNL1       -0.1271
      7 N          10.6975   41.4331    8.2717 N.ar    1  UNL1       -0.1944
      8 N          12.3589   42.9166    8.1836 N.ar    1  UNL1       -0.1757
      9 N          11.1217   42.6633   10.2257 N.ar    1  UNL1       -0.2083
     10 C           8.9514   39.6769    8.0399 C.3     1  UNL1        0.2058
     11 C           9.8615   38.6193    7.4270 C.3     1  UNL1        0.0540
     12 O           8.0535   40.2406    7.0797 O.3     1  UNL1       -0.4732
     13 C           7.1816   41.3152    7.3111 C.ar    1  UNL1        0.1393
     14 C           7.2718   42.5185    6.5946 C.ar    1  UNL1        0.0432
     15 C           6.3843   43.5654    6.8556 C.ar    1  UNL1        0.0784
     16 C           5.3926   43.4251    7.8357 C.ar    1  UNL1        0.2903
     17 C           5.3020   42.2212    8.5499 C.ar    1  UNL1        0.0784
     18 C           6.1909   41.1751    8.2877 C.ar    1  UNL1        0.0432
     19 O           3.3281   44.2746    8.8144 O.co2   1  UNL1       -0.5760
     20 O           4.7279   45.6548    7.6908 O.2     1  UNL1        0.0415
     21 N           4.4833   44.5015    8.1017 N.pl3   1  UNL1        0.0809
     22 N          12.9778   42.4615    5.8408 N.pl3   1  UNL1       -0.2618
     23 H          12.6919   42.0104    5.0137 H       1  UNL1        0.1567
     24 C          14.1526   43.2776    5.7690 C.2     1  UNL1        0.2080
     25 N          14.0799   44.5612    5.6380 N.2     1  UNL1       -0.0644
     26 C          16.4351   44.8092    6.1169 C.3     1  UNL1        0.2885
     27 O          15.2288   45.3122    5.5725 O.2     1  UNL1       -0.3720
@<TRIPOS>UNITY_ATOM_ATTR
19 1
charge -1
21 1
charge 1
@<TRIPOS>BOND
     1    26    27    1
     2    24    22    1
     3     1     8   ar
     4     2     9   ar
     5     3     4   ar
     6     5     7   ar
     7    10     5    1
     8    10    11    1
     9    10    12    1
    10    13    12    1
    11    14    15   ar
    12    16    17   ar
    13    16    21    1
    14    18    13   ar
    15    27    25    1
    16    22     1    1
    17     7     6   ar
    18     7     2   ar
    19    21    19    1
    20    24    25    2
    21     1     6   ar
    22     2     8   ar
    23     3     9   ar
    24     4     5   ar
    25    13    14   ar
    26    15    16   ar
    27    17    18   ar
    28    21    20    2
    29    22    23    1
@<TRIPOS>MOLECULE
MolPort-002-859-470 CSSS00138420674 MCULE-7654401932
 27 29 0 0 0
SMALL
GASTEIGER

@<TRIPOS>ATOM
      1 C          13.0683   42.5029    6.5974 C.ar    1  UNL1        0.2420
      2 C          12.8922   41.3425    8.3150 C.ar    1  UNL1        0.2554
      3 C          12.0554   39.9976   10.0356 C.ar    1  UNL1        0.1034
      4 C          10.7718   40.0554    9.4582 C.ar    1  UNL1        0.0391
      5 C          10.5898   40.7974    8.2766 C.ar    1  UNL1        0.1048
      6 N          11.7646   42.1399    6.6604 N.ar    1  UNL1       -0.1271
      7 N          11.6833   41.4090    7.7542 N.ar    1  UNL1       -0.1944
      8 N          13.8225   42.0218    7.6234 N.ar    1  UNL1       -0.1757
      9 N          13.1084   40.6450    9.4562 N.ar    1  UNL1       -0.2083
     10 C           9.2595   40.8797    7.5755 C.3     1  UNL1        0.2058
     11 C           9.3552   41.0147    6.0605 C.3     1  UNL1        0.0540
     12 O           8.4071   41.8717    8.1545 O.3     1  UNL1       -0.4732
     13 C           7.3284   41.6181    9.0151 C.ar    1  UNL1        0.1393
     14 C           7.4438   41.7251   10.4097 C.ar    1  UNL1        0.0432
     15 C           6.3454   41.4635   11.2325 C.ar    1  UNL1        0.0784
     16 C           5.1150   41.0923   10.6740 C.ar    1  UNL1        0.2903
     17 C           5.0001   40.9876    9.2799 C.ar    1  UNL1        0.0784
     18 C           6.1000   41.2494    8.4583 C.ar    1  UNL1        0.0432
     19 O           3.1457   41.8436   11.8984 O.co2   1  UNL1       -0.5760
     20 O           3.7619   39.6650   11.9256 O.2     1  UNL1        0.0415
     21 N           3.9894   40.8240   11.5210 N.pl3   1  UNL1        0.0809
     22 N          13.5852   43.3178    5.5394 N.pl3   1  UNL1       -0.2618
     23 H          12.9452   43.6353    4.8621 H       1  UNL1        0.1567
     24 C          14.9536   43.7105    5.3821 C.2     1  UNL1        0.2080
     25 N          15.4163   44.7891    5.9230 N.2     1  UNL1       -0.0644
     26 C          17.7345   44.1314    5.7474 C.3     1  UNL1        0.2885
     27 O          16.7351   45.1342    5.7504 O.2     1  UNL1       -0.3720
@<TRIPOS>UNITY_ATOM_ATTR
19 1
charge -1
21 1
charge 1
@<TRIPOS>BOND
     1    26    27    1
     2    24    22    1
     3     1     8   ar
     4     2     9   ar
     5     3     4   ar
     6     5     7   ar
     7    10     5    1
     8    10    11    1
     9    10    12    1
    10    13    12    1
    11    14    15   ar
    12    16    17   ar
    13    16    21    1
    14    18    13   ar
    15    27    25    1
    16    22     1    1
    17     7     6   ar
    18     7     2   ar
    19    21    19    1
    20    24    25    2
    21     1     6   ar
    22     2     8   ar
    23     3     9   ar
    24     4     5   ar
    25    13    14   ar
    26    15    16   ar
    27    17    18   ar
    28    21    20    2
    29    22    23    1
@<TRIPOS>MOLECULE
MolPort-002-859-470 CSSS00138420674 MCULE-7654401932
 27 29 0 0 0
SMALL
GASTEIGER

@<TRIPOS>ATOM
      1 C          16.5255   41.2134    8.8832 C.ar    1  UNL1        0.2420
      2 C          16.1271   39.7227   10.2783 C.ar    1  UNL1        0.2554
      3 C          15.0462   38.1668   11.6497 C.ar    1  UNL1        0.1034
      4 C          13.8004   38.5779   11.1363 C.ar    1  UNL1        0.0391
      5 C          13.7663   39.6011   10.1711 C.ar    1  UNL1        0.1048
      6 N          15.1781   41.0724    8.8918 N.ar    1  UNL1       -0.1271
      7 N          14.9561   40.1254    9.7814 N.ar    1  UNL1       -0.1944
      8 N          17.1704   40.3799    9.7447 N.ar    1  UNL1       -0.1757
      9 N          16.2032   38.7459   11.2142 N.ar    1  UNL1       -0.2083
     10 C          12.4807   40.0733    9.5448 C.3     1  UNL1        0.2058
     11 C          12.5130   40.1463    8.0229 C.3     1  UNL1        0.0540
     12 O          12.0094   41.2879   10.1351 O.3     1  UNL1       -0.4732
     13 C          10.7593   41.8788    9.8971 C.ar    1  UNL1        0.1393
     14 C          10.5577   43.2645    9.9907 C.ar    1  UNL1        0.0432
     15 C           9.2967   43.8139    9.7464 C.ar    1  UNL1        0.0784
     16 C           8.2185   42.9870    9.4038 C.ar    1  UNL1        0.2903
     17 C           8.4214   41.6023    9.3085 C.ar    1  UNL1        0.0784
     18 C           9.6836   41.0543    9.5536 C.ar    1  UNL1        0.0432
     19 O           6.7971   44.8946    8.8726 O.co2   1  UNL1       -0.5760
     20 O           5.9019   42.8391    9.1890 O.2     1  UNL1        0.0415
     21 N           6.9251   43.5537    9.1540 N.pl3   1  UNL1        0.0809
     22 N          17.1904   42.1582    8.0370 N.pl3   1  UNL1       -0.2618
     23 H          18.1729   42.1116    7.9954 H       1  UNL1        0.1567
     24 C          16.5486   43.1651    7.2462 C.2     1  UNL1        0.2080
     25 N          17.1975   44.1852    6.7897 N.2     1  UNL1       -0.0644
     26 C          15.1568   45.0174    5.7995 C.3     1  UNL1        0.2885
     27 O          16.5484   45.1317    6.0341 O.2     1  UNL1       -0.3720
@<TRIPOS>UNITY_ATOM_ATTR
19 1
charge -1
21 1
charge 1
@<TRIPOS>BOND
     1    26    27    1
     2    24    22    1
     3     1     8   ar
     4     2     9   ar
     5     3     4   ar
     6     5     7   ar
     7    10     5    1
     8    10    11    1
     9    10    12    1
    10    13    12    1
    11    14    15   ar
    12    16    17   ar
    13    16    21    1
    14    18    13   ar
    15    27    25    1
    16    22     1    1
    17     7     6   ar
    18     7     2   ar
    19    21    19    1
    20    24    25    2
    21     1     6   ar
    22     2     8   ar
    23     3     9   ar
    24     4     5   ar
    25    13    14   ar
    26    15    16   ar
    27    17    18   ar
    28    21    20    2
    29    22    23    1
@<TRIPOS>MOLECULE
MolPort-002-859-470 CSSS00138420674 MCULE-7654401932
 27 29 0 0 0
SMALL
GASTEIGER

@<TRIPOS>ATOM
      1 C          11.3935   38.6424    9.9597 C.ar    1  UNL1        0.2420
      2 C          12.5393   36.9256    9.7003 C.ar    1  UNL1        0.2554
      3 C          14.3280   35.4466    9.4124 C.ar    1  UNL1        0.1034
      4 C          15.2268   36.5314    9.4140 C.ar    1  UNL1        0.0391
      5 C          14.7192   37.8356    9.5592 C.ar    1  UNL1        0.1048
      6 N          12.6756   39.0701    9.8671 N.ar    1  UNL1       -0.1271
      7 N          13.3757   37.9652    9.7035 N.ar    1  UNL1       -0.1944
      8 N          11.2565   37.2918    9.8600 N.ar    1  UNL1       -0.1757
      9 N          12.9864   35.6548    9.5557 N.ar    1  UNL1       -0.2083
     10 C          15.6139   39.0460    9.6087 C.3     1  UNL1        0.2058
     11 C          16.6068   39.0465   10.7648 C.3     1  UNL1        0.0540
     12 O          14.8720   40.2664    9.5318 O.3     1  UNL1       -0.4732
     13 C          15.0442   41.2657    8.5622 C.ar    1  UNL1        0.1393
     14 C          14.0297   41.6104    7.6558 C.ar    1  UNL1        0.0432
     15 C          14.2412   42.6114    6.7045 C.ar    1  UNL1        0.0784
     16 C          15.4693   43.2838    6.6454 C.ar    1  UNL1        0.2903
     17 C          16.4819   42.9400    7.5530 C.ar    1  UNL1        0.0784
     18 C          16.2687   41.9381    8.5039 C.ar    1  UNL1        0.0432
     19 O          14.8604   44.4062    4.5690 O.co2   1  UNL1       -0.5760
     20 O          16.6178   45.1282    5.8006 O.2     1  UNL1        0.0415
     21 N          15.6836   44.3106    5.6676 N.pl3   1  UNL1        0.0809
     22 N          10.2976   39.5451   10.1462 N.pl3   1  UNL1       -0.2618
     23 H           9.4928   39.1905   10.5888 H       1  UNL1        0.1567
     24 C          10.2719   40.9195    9.7441 C.2     1  UNL1        0.2080
     25 N           9.1941   41.6285    9.8201 N.2     1  UNL1       -0.0644
     26 C           9.3457   43.9716   10.3896 C.3     1  UNL1        0.2885
     27 O           9.2071   42.9445    9.4250 O.2     1  UNL1       -0.3720
@<TRIPOS>UNITY_ATOM_ATTR
19 1
charge -1
21 1
charge 1
@<TRIPOS>BOND
     1    26    27    1
     2    24    22    1
     3     1     8   ar
     4     2     9   ar
     5     3     4   ar
     6     5     7   ar
     7    10     5    1
     8    10    11    1
     9    10    12    1
    10    13    12    1
    11    14    15   ar
    12    16    17   ar
    13    16    21    1
    14    18    13   ar
    15    27    25    1
    16    22     1    1
    17     7     6   ar
    18     7     2   ar
    19    21    19    1
    20    24    25    2
    21     1     6   ar
    22     2     8   ar
    23     3     9   ar
    24     4     5   ar
    25    13    14   ar
    26    15    16   ar
    27    17    18   ar
    28    21    20    2
    29    22    23    1
@<TRIPOS>MOLECULE
MolPort-002-859-470 CSSS00138420674 MCULE-7654401932
 27 29 0 0 0
SMALL
GASTEIGER

@<TRIPOS>ATOM
      1 C          16.7333   41.3276    8.8415 C.ar    1  UNL1        0.2420
      2 C          16.3965   39.8159   10.2303 C.ar    1  UNL1        0.2554
      3 C          15.3756   38.2589   11.6456 C.ar    1  UNL1        0.1034
      4 C          14.1077   38.7169   11.2370 C.ar    1  UNL1        0.0391
      5 C          14.0317   39.7633   10.2994 C.ar    1  UNL1        0.1048
      6 N          15.3868   41.2243    8.9489 N.ar    1  UNL1       -0.1271
      7 N          15.2041   40.2631    9.8321 N.ar    1  UNL1       -0.1944
      8 N          17.4159   40.4561    9.6336 N.ar    1  UNL1       -0.1757
      9 N          16.5135   38.8154   11.1364 N.ar    1  UNL1       -0.2083
     10 C          12.7174   40.2861    9.7825 C.3     1  UNL1        0.2058
     11 C          11.6053   40.3294   10.8236 C.3     1  UNL1        0.0540
     12 O          12.3098   39.6232    8.5823 O.3     1  UNL1       -0.4732
     13 C          11.0733   39.7870    7.9399 C.ar    1  UNL1        0.1393
     14 C          10.7268   40.9747    7.2773 C.ar    1  UNL1        0.0432
     15 C           9.4847   41.0981    6.6499 C.ar    1  UNL1        0.0784
     16 C           8.5706   40.0363    6.6743 C.ar    1  UNL1        0.2903
     17 C           8.9186   38.8489    7.3351 C.ar    1  UNL1        0.0784
     18 C          10.1615   38.7272    7.9625 C.ar    1  UNL1        0.0432
     19 O           6.4334   39.0954    5.9752 O.co2   1  UNL1       -0.5760
     20 O           6.9548   41.2494    5.5115 O.2     1  UNL1        0.0415
     21 N           7.2962   40.1661    6.0298 N.pl3   1  UNL1        0.0809
     22 N          17.3607   42.2731    7.9679 N.pl3   1  UNL1       -0.2618
     23 H          18.3110   42.1278    7.7554 H       1  UNL1        0.1567
     24 C          16.7243   43.4120    7.3770 C.2     1  UNL1        0.2080
     25 N          17.2323   44.0189    6.3554 N.2     1  UNL1       -0.0644
     26 C          15.1790   45.1697    5.8106 C.3     1  UNL1        0.2885
     27 O          16.5934   45.1088    5.8148 O.2     1  UNL1       -0.3720
@<TRIPOS>UNITY_ATOM_ATTR
19 1
charge -1
21 1
charge 1
@<TRIPOS>BOND
     1    26    27    1
     2    24    22    1
     3     1     8   ar
     4     2     9   ar
     5     3     4   ar
     6     5     7   ar
     7    10     5    1
     8    10    11    1
     9    10    12    1
    10    13    12    1
    11    14    15   ar
    12    16    17   ar
    13    16    21    1
    14    18    13   ar
    15    27    25    1
    16    22     1    1
    17     7     6   ar
    18     7     2   ar
    19    21    19    1
    20    24    25    2
    21     1     6   ar
    22     2     8   ar
    23     3     9   ar
    24     4     5   ar
    25    13    14   ar
    26    15    16   ar
    27    17    18   ar
    28    21    20    2
    29    22    23    1
@<TRIPOS>MOLECULE
MolPort-002-859-470 CSSS00138420674 MCULE-7654401932
 27 29 0 0 0
SMALL
GASTEIGER

@<TRIPOS>ATOM
      1 C          13.0478   42.2513    6.9419 C.ar    1  UNL1        0.2420
      2 C          13.3657   41.1670    8.6886 C.ar    1  UNL1        0.2554
      3 C          13.0509   39.9050   10.6322 C.ar    1  UNL1        0.1034
      4 C          11.6565   39.9504   10.4374 C.ar    1  UNL1        0.0391
      5 C          11.1472   40.6430    9.3235 C.ar    1  UNL1        0.1048
      6 N          11.8156   41.9038    7.3850 N.ar    1  UNL1       -0.1271
      7 N          12.0476   41.2211    8.4883 N.ar    1  UNL1       -0.1944
      8 N          14.0617   41.8072    7.7342 N.ar    1  UNL1       -0.1757
      9 N          13.8964   40.5169    9.7522 N.ar    1  UNL1       -0.2083
     10 C           9.6731   40.7080    9.0221 C.3     1  UNL1        0.2058
     11 C           9.2519   39.9374    7.7766 C.3     1  UNL1        0.0540
     12 O           9.1840   42.0521    9.0182 O.3     1  UNL1       -0.4732
     13 C           7.8323   42.4280    9.0069 C.ar    1  UNL1        0.1393
     14 C           6.8269   41.6189    9.5586 C.ar    1  UNL1        0.0432
     15 C           5.4919   42.0292    9.5267 C.ar    1  UNL1        0.0784
     16 C           5.1415   43.2546    8.9441 C.ar    1  UNL1        0.2903
     17 C           6.1473   44.0635    8.3948 C.ar    1  UNL1        0.0784
     18 C           7.4824   43.6513    8.4273 C.ar    1  UNL1        0.0432
     19 O           2.7806   42.8454    9.3915 O.co2   1  UNL1       -0.5760
     20 O           3.4584   44.7904    8.4510 O.2     1  UNL1        0.0415
     21 N           3.7703   43.6730    8.9125 N.pl3   1  UNL1        0.0809
     22 N          13.2437   43.0152    5.7466 N.pl3   1  UNL1       -0.2618
     23 H          12.5590   42.9347    5.0438 H       1  UNL1        0.1567
     24 C          14.3502   43.8863    5.4859 C.2     1  UNL1        0.2080
     25 N          15.5493   43.5930    5.8683 N.2     1  UNL1       -0.0644
     26 C          17.9238   43.9933    5.6709 C.3     1  UNL1        0.2885
     27 O          16.5867   44.4534    5.6004 O.2     1  UNL1       -0.3720
@<TRIPOS>UNITY_ATOM_ATTR
19 1
charge -1
21 1
charge 1
@<TRIPOS>BOND
     1    26    27    1
     2    24    22    1
     3     1     8   ar
     4     2     9   ar
     5     3     4   ar
     6     5     7   ar
     7    10     5    1
     8    10    11    1
     9    10    12    1
    10    13    12    1
    11    14    15   ar
    12    16    17   ar
    13    16    21    1
    14    18    13   ar
    15    27    25    1
    16    22     1    1
    17     7     6   ar
    18     7     2   ar
    19    21    19    1
    20    24    25    2
    21     1     6   ar
    22     2     8   ar
    23     3     9   ar
    24     4     5   ar
    25    13    14   ar
    26    15    16   ar
    27    17    18   ar
    28    21    20    2
    29    22    23    1
