@<TRIPOS>MOLECULE
MolPort-046-956-527 MCULE-7643606038 PubChem-110095462
 28 31 0 0 0
SMALL
GASTEIGER

@<TRIPOS>ATOM
      1 C           8.9570   39.7705    6.5322 C.3     1  UNL1        0.0737
      2 C          10.3536   40.1747    6.8383 C.ar    1  UNL1        0.1406
      3 C          12.3168   39.9132    8.1310 C.ar    1  UNL1        0.0641
      4 C          12.9371   40.9314    7.4070 C.ar    1  UNL1        0.0492
      5 C          12.2223   41.5582    6.3868 C.ar    1  UNL1        0.1357
      6 N          11.0370   39.5560    7.8361 N.ar    1  UNL1       -0.2349
      7 N          10.9446   41.1696    6.1248 N.ar    1  UNL1       -0.2159
      8 C          13.0552   39.2502    9.2460 C.3     1  UNL1        0.0564
      9 C          12.5111   39.6941   10.6072 C.3     1  UNL1        0.0087
     10 C          13.4257   39.2815   11.7677 C.3     1  UNL1        0.0178
     11 C          14.5472   38.3518   11.3050 C.3     1  UNL1        0.0725
     12 C          14.5632   39.5247    9.1372 C.3     1  UNL1        0.0784
     13 N          15.3586   38.9968   10.2632 N.3     1  UNL1       -0.2660
     14 C          16.2365   37.9765    9.7108 C.3     1  UNL1        0.1371
     15 C          15.4729   36.7144    9.4606 C.ar    1  UNL1        0.1368
     16 C          13.9083   35.2635    9.5008 C.ar    1  UNL1        0.1189
     17 C          14.9231   34.7804    8.6894 C.ar    1  UNL1        0.0978
     18 C          17.1441   35.6171    7.9395 C.3     1  UNL1        0.1317
     19 N          14.2550   36.4801    9.9798 N.ar    1  UNL1       -0.2279
     20 N          15.8943   35.7066    8.6759 N.ar    1  UNL1       -0.3106
     21 N          12.8461   42.6139    5.6456 N.pl3   1  UNL1       -0.2833
     22 H          12.4110   42.8843    4.8049 H       1  UNL1        0.1550
     23 C          14.0420   43.3140    6.0098 C.ar    1  UNL1        0.1332
     24 C          14.9596   42.6929    6.8633 C.ar    1  UNL1        0.0345
     25 C          16.1265   43.3682    7.2263 C.ar    1  UNL1        0.0045
     26 C          16.3677   44.6519    6.7332 C.ar    1  UNL1        0.0208
     27 C          15.4310   45.2420    5.8804 C.ar    1  UNL1        0.1003
     28 N          14.2993   44.5678    5.5400 N.ar    1  UNL1       -0.2290
@<TRIPOS>BOND
     1     1     2    1
     2     2     7   ar
     3     3     6   ar
     4     4     5   ar
     5     5    21    1
     6    23    28   ar
     7    24    25   ar
     8    26    27   ar
     9     8     3    1
    10     8     9    1
    11     9    10    1
    12    10    11    1
    13    11    13    1
    14    12    13    1
    15    12     8    1
    16    14    13    1
    17    14    15    1
    18    16    19   ar
    19    17    20   ar
    20    18    20    1
    21    21    23    1
    22    20    15   ar
    23     2     6   ar
    24     3     4   ar
    25     5     7   ar
    26    23    24   ar
    27    25    26   ar
    28    27    28   ar
    29    15    19   ar
    30    16    17   ar
    31    21    22    1
@<TRIPOS>MOLECULE
MolPort-046-956-527 MCULE-7643606038 PubChem-110095462
 28 31 0 0 0
SMALL
GASTEIGER

@<TRIPOS>ATOM
      1 C           8.9688   38.9967    6.4204 C.3     1  UNL1        0.0737
      2 C          10.2788   39.5839    6.8032 C.ar    1  UNL1        0.1406
      3 C          12.2136   39.5443    8.1627 C.ar    1  UNL1        0.0641
      4 C          12.7008   40.6790    7.5140 C.ar    1  UNL1        0.0492
      5 C          11.9365   41.2476    6.4956 C.ar    1  UNL1        0.1357
      6 N          11.0116   39.0200    7.7983 N.ar    1  UNL1       -0.2349
      7 N          10.7401   40.6908    6.1626 N.ar    1  UNL1       -0.2159
      8 C          13.0034   38.9384    9.2751 C.3     1  UNL1        0.0564
      9 C          12.7259   39.6539   10.6006 C.3     1  UNL1        0.0087
     10 C          13.7297   39.2710   11.6956 C.3     1  UNL1        0.0178
     11 C          14.6331   38.1174   11.2606 C.3     1  UNL1        0.0725
     12 C          14.5039   38.9499    8.9442 C.3     1  UNL1        0.0784
     13 N          15.3700   38.4684   10.0385 N.3     1  UNL1       -0.2660
     14 C          16.0093   37.2525    9.5594 C.3     1  UNL1        0.1371
     15 C          17.4086   37.1610   10.0814 C.ar    1  UNL1        0.1368
     16 C          19.2408   36.3387   10.8033 C.ar    1  UNL1        0.1189
     17 C          19.3946   37.7128   10.7045 C.ar    1  UNL1        0.0978
     18 C          17.9551   39.6109    9.9836 C.3     1  UNL1        0.1317
     19 N          17.9939   35.9952   10.4070 N.ar    1  UNL1       -0.2279
     20 N          18.2345   38.2094   10.2479 N.ar    1  UNL1       -0.3106
     21 N          12.4221   42.4207    5.8317 N.pl3   1  UNL1       -0.2833
     22 H          11.8523   42.7990    5.1236 H       1  UNL1        0.1550
     23 C          13.6571   43.0964    6.0987 C.ar    1  UNL1        0.1332
     24 C          14.6163   42.4675    6.8991 C.ar    1  UNL1        0.0345
     25 C          15.8216   43.1192    7.1674 C.ar    1  UNL1        0.0045
     26 C          16.0591   44.3872    6.6337 C.ar    1  UNL1        0.0208
     27 C          15.0802   44.9856    5.8359 C.ar    1  UNL1        0.1003
     28 N          13.9116   44.3346    5.5876 N.ar    1  UNL1       -0.2290
@<TRIPOS>BOND
     1     1     2    1
     2     2     7   ar
     3     3     6   ar
     4     4     5   ar
     5     5    21    1
     6    23    28   ar
     7    24    25   ar
     8    26    27   ar
     9     8     3    1
    10     8     9    1
    11     9    10    1
    12    10    11    1
    13    11    13    1
    14    12    13    1
    15    12     8    1
    16    14    13    1
    17    14    15    1
    18    16    19   ar
    19    17    20   ar
    20    18    20    1
    21    21    23    1
    22    20    15   ar
    23     2     6   ar
    24     3     4   ar
    25     5     7   ar
    26    23    24   ar
    27    25    26   ar
    28    27    28   ar
    29    15    19   ar
    30    16    17   ar
    31    21    22    1
@<TRIPOS>MOLECULE
MolPort-046-956-527 MCULE-7643606038 PubChem-110095462
 28 31 0 0 0
SMALL
GASTEIGER

@<TRIPOS>ATOM
      1 C           9.0263   41.2143   14.1132 C.3     1  UNL1        0.0737
      2 C           9.1644   41.3853   12.6439 C.ar    1  UNL1        0.1406
      3 C          10.4196   41.0789   10.6629 C.ar    1  UNL1        0.0641
      4 C           9.4196   41.7106    9.9236 C.ar    1  UNL1        0.0492
      5 C           8.2855   42.1733   10.5903 C.ar    1  UNL1        0.1357
      6 N          10.2756   40.9308   12.0082 N.ar    1  UNL1       -0.2349
      7 N           8.1819   42.0041   11.9367 N.ar    1  UNL1       -0.2159
      8 C          11.6542   40.6030    9.9718 C.3     1  UNL1        0.0564
      9 C          12.5992   39.9029   10.9530 C.3     1  UNL1        0.0087
     10 C          13.9951   39.6722   10.3601 C.3     1  UNL1        0.0178
     11 C          14.0425   40.0081    8.8698 C.3     1  UNL1        0.0725
     12 C          12.3603   41.7670    9.2593 C.3     1  UNL1        0.0784
     13 N          13.6512   41.4060    8.6407 N.3     1  UNL1       -0.2660
     14 C          13.4869   41.5752    7.2051 C.3     1  UNL1        0.1371
     15 C          14.1851   42.8160    6.7451 C.ar    1  UNL1        0.1368
     16 C          14.5357   44.7045    5.8148 C.ar    1  UNL1        0.1189
     17 C          15.6915   44.3325    6.4836 C.ar    1  UNL1        0.0978
     18 C          16.3873   42.3907    7.8765 C.3     1  UNL1        0.1317
     19 N          13.5904   43.7520    5.9849 N.ar    1  UNL1       -0.2279
     20 N          15.4499   43.1459    7.0622 N.ar    1  UNL1       -0.3106
     21 N           7.2584   42.8348    9.8419 N.pl3   1  UNL1       -0.2833
     22 H           7.5225   43.6385    9.3384 H       1  UNL1        0.1550
     23 C           5.8838   42.4395    9.7555 C.ar    1  UNL1        0.1332
     24 C           5.5150   41.1636   10.1938 C.ar    1  UNL1        0.0345
     25 C           4.1785   40.7682   10.1110 C.ar    1  UNL1        0.0045
     26 C           3.2248   41.6482    9.5960 C.ar    1  UNL1        0.0208
     27 C           3.6273   42.9167    9.1695 C.ar    1  UNL1        0.1003
     28 N           4.9348   43.2822    9.2571 N.ar    1  UNL1       -0.2290
@<TRIPOS>BOND
     1     1     2    1
     2     2     7   ar
     3     3     6   ar
     4     4     5   ar
     5     5    21    1
     6    23    28   ar
     7    24    25   ar
     8    26    27   ar
     9     8     3    1
    10     8     9    1
    11     9    10    1
    12    10    11    1
    13    11    13    1
    14    12    13    1
    15    12     8    1
    16    14    13    1
    17    14    15    1
    18    16    19   ar
    19    17    20   ar
    20    18    20    1
    21    21    23    1
    22    20    15   ar
    23     2     6   ar
    24     3     4   ar
    25     5     7   ar
    26    23    24   ar
    27    25    26   ar
    28    27    28   ar
    29    15    19   ar
    30    16    17   ar
    31    21    22    1
@<TRIPOS>MOLECULE
MolPort-046-956-527 MCULE-7643606038 PubChem-110095462
 28 31 0 0 0
SMALL
GASTEIGER

@<TRIPOS>ATOM
      1 C          10.4790   40.0717    5.3102 C.3     1  UNL1        0.0737
      2 C          11.5833   40.4162    6.2425 C.ar    1  UNL1        0.1406
      3 C          12.9872   39.8226    8.0508 C.ar    1  UNL1        0.0641
      4 C          13.6239   41.0612    7.9719 C.ar    1  UNL1        0.0492
      5 C          13.2068   41.9671    6.9971 C.ar    1  UNL1        0.1357
      6 N          11.9777   39.5243    7.1880 N.ar    1  UNL1       -0.2349
      7 N          12.1936   41.6279    6.1542 N.ar    1  UNL1       -0.2159
      8 C          13.3996   38.8509    9.1063 C.3     1  UNL1        0.0564
      9 C          12.4938   37.6158    9.1017 C.3     1  UNL1        0.0087
     10 C          12.6845   36.7435   10.3491 C.3     1  UNL1        0.0178
     11 C          13.8742   37.2060   11.1899 C.3     1  UNL1        0.0725
     12 C          13.4111   39.5229   10.4880 C.3     1  UNL1        0.0784
     13 N          13.7019   38.6047   11.6068 N.3     1  UNL1       -0.2660
     14 C          14.9649   39.0385   12.1842 C.3     1  UNL1        0.1371
     15 C          16.1099   38.3708   11.4899 C.ar    1  UNL1        0.1368
     16 C          17.5332   36.8857   10.9215 C.ar    1  UNL1        0.1189
     17 C          17.7407   38.0059   10.1318 C.ar    1  UNL1        0.0978
     18 C          16.6858   40.2508    9.9265 C.3     1  UNL1        0.1317
     19 N          16.5055   37.1167   11.7701 N.ar    1  UNL1       -0.2279
     20 N          16.8361   38.9252   10.5029 N.ar    1  UNL1       -0.3106
     21 N          13.8458   43.2469    6.9160 N.pl3   1  UNL1       -0.2833
     22 H          13.2580   44.0350    6.8656 H       1  UNL1        0.1550
     23 C          15.2577   43.4905    6.9012 C.ar    1  UNL1        0.1332
     24 C          15.8685   43.8729    5.7025 C.ar    1  UNL1        0.0345
     25 C          17.2442   44.1097    5.6773 C.ar    1  UNL1        0.0045
     26 C          17.9949   43.9662    6.8456 C.ar    1  UNL1        0.0208
     27 C          17.3523   43.5853    8.0267 C.ar    1  UNL1        0.1003
     28 N          16.0109   43.3577    8.0299 N.ar    1  UNL1       -0.2290
@<TRIPOS>BOND
     1     1     2    1
     2     2     7   ar
     3     3     6   ar
     4     4     5   ar
     5     5    21    1
     6    23    28   ar
     7    24    25   ar
     8    26    27   ar
     9     8     3    1
    10     8     9    1
    11     9    10    1
    12    10    11    1
    13    11    13    1
    14    12    13    1
    15    12     8    1
    16    14    13    1
    17    14    15    1
    18    16    19   ar
    19    17    20   ar
    20    18    20    1
    21    21    23    1
    22    20    15   ar
    23     2     6   ar
    24     3     4   ar
    25     5     7   ar
    26    23    24   ar
    27    25    26   ar
    28    27    28   ar
    29    15    19   ar
    30    16    17   ar
    31    21    22    1
@<TRIPOS>MOLECULE
MolPort-046-956-527 MCULE-7643606038 PubChem-110095462
 28 31 0 0 0
SMALL
GASTEIGER

@<TRIPOS>ATOM
      1 C          12.7816   39.9797   10.4268 C.3     1  UNL1        0.0737
      2 C          12.0368   40.5807    9.2904 C.ar    1  UNL1        0.1406
      3 C           9.9796   41.1030    8.2471 C.ar    1  UNL1        0.0641
      4 C          10.6615   41.6883    7.1803 C.ar    1  UNL1        0.0492
      5 C          12.0557   41.7029    7.2045 C.ar    1  UNL1        0.1357
      6 N          10.6786   40.5577    9.2797 N.ar    1  UNL1       -0.2349
      7 N          12.7153   41.1466    8.2570 N.ar    1  UNL1       -0.2159
      8 C           8.4879   41.0515    8.2254 C.3     1  UNL1        0.0564
      9 C           7.9867   40.0546    7.1762 C.3     1  UNL1        0.0087
     10 C           6.4822   40.1909    6.9087 C.3     1  UNL1        0.0178
     11 C           5.8124   41.1427    7.8995 C.3     1  UNL1        0.0725
     12 C           7.9000   42.4505    7.9841 C.3     1  UNL1        0.0784
     13 N           6.4311   42.4743    7.8382 N.3     1  UNL1       -0.2660
     14 C           5.9133   43.2396    8.9621 C.3     1  UNL1        0.1371
     15 C           4.8246   42.4787    9.6509 C.ar    1  UNL1        0.1368
     16 C           2.8983   41.6766   10.0987 C.ar    1  UNL1        0.1189
     17 C           3.8024   41.1631   11.0153 C.ar    1  UNL1        0.0978
     18 C           6.2478   41.3970   11.4159 C.3     1  UNL1        0.1317
     19 N           3.5444   42.4989    9.2406 N.ar    1  UNL1       -0.2279
     20 N           5.0054   41.6771   10.7157 N.ar    1  UNL1       -0.3106
     21 N          12.7658   42.2904    6.1075 N.pl3   1  UNL1       -0.2833
     22 H          12.4262   42.0978    5.2037 H       1  UNL1        0.1550
     23 C          13.9224   43.1312    6.1988 C.ar    1  UNL1        0.1332
     24 C          15.0482   42.6656    6.8857 C.ar    1  UNL1        0.0345
     25 C          16.1791   43.4787    6.9825 C.ar    1  UNL1        0.0045
     26 C          16.1772   44.7438    6.3922 C.ar    1  UNL1        0.0208
     27 C          15.0364   45.1768    5.7111 C.ar    1  UNL1        0.1003
     28 N          13.9440   44.3699    5.6294 N.ar    1  UNL1       -0.2290
@<TRIPOS>BOND
     1     1     2    1
     2     2     7   ar
     3     3     6   ar
     4     4     5   ar
     5     5    21    1
     6    23    28   ar
     7    24    25   ar
     8    26    27   ar
     9     8     3    1
    10     8     9    1
    11     9    10    1
    12    10    11    1
    13    11    13    1
    14    12    13    1
    15    12     8    1
    16    14    13    1
    17    14    15    1
    18    16    19   ar
    19    17    20   ar
    20    18    20    1
    21    21    23    1
    22    20    15   ar
    23     2     6   ar
    24     3     4   ar
    25     5     7   ar
    26    23    24   ar
    27    25    26   ar
    28    27    28   ar
    29    15    19   ar
    30    16    17   ar
    31    21    22    1
@<TRIPOS>MOLECULE
MolPort-046-956-527 MCULE-7643606038 PubChem-110095462
 28 31 0 0 0
SMALL
GASTEIGER

@<TRIPOS>ATOM
      1 C           9.3319   38.7336    3.5375 C.3     1  UNL1        0.0737
      2 C           9.1824   39.3758    4.8689 C.ar    1  UNL1        0.1406
      3 C          10.1394   40.0802    6.9137 C.ar    1  UNL1        0.0641
      4 C           8.8996   40.5592    7.3367 C.ar    1  UNL1        0.0492
      5 C           7.8048   40.4282    6.4829 C.ar    1  UNL1        0.1357
      6 N          10.2575   39.4951    5.6905 N.ar    1  UNL1       -0.2349
      7 N           7.9673   39.8369    5.2679 N.ar    1  UNL1       -0.2159
      8 C          11.3169   40.1849    7.8252 C.3     1  UNL1        0.0564
      9 C          10.8781   40.1942    9.2926 C.3     1  UNL1        0.0087
     10 C          12.0120   40.6031   10.2416 C.3     1  UNL1        0.0178
     11 C          13.3537   40.7002    9.5160 C.3     1  UNL1        0.0725
     12 C          12.1535   41.4295    7.4904 C.3     1  UNL1        0.0784
     13 N          13.2786   41.6709    8.4152 N.3     1  UNL1       -0.2660
     14 C          14.4978   41.5282    7.6341 C.3     1  UNL1        0.1371
     15 C          14.8449   42.8241    6.9716 C.ar    1  UNL1        0.1368
     16 C          14.6910   44.5703    5.7543 C.ar    1  UNL1        0.1189
     17 C          15.8929   44.6293    6.4424 C.ar    1  UNL1        0.0978
     18 C          17.0611   43.1842    8.0982 C.3     1  UNL1        0.1317
     19 N          14.0334   43.4375    6.0925 N.ar    1  UNL1       -0.2279
     20 N          15.9691   43.5256    7.2020 N.ar    1  UNL1       -0.3106
     21 N           6.5242   40.9055    6.9132 N.pl3   1  UNL1       -0.2833
     22 H           5.8700   41.1197    6.2094 H       1  UNL1        0.1550
     23 C           6.1039   41.1013    8.2689 C.ar    1  UNL1        0.1332
     24 C           7.0535   41.4666    9.2286 C.ar    1  UNL1        0.0345
     25 C           6.6540   41.6569   10.5528 C.ar    1  UNL1        0.0045
     26 C           5.3143   41.4844   10.9055 C.ar    1  UNL1        0.0208
     27 C           4.3912   41.1218    9.9210 C.ar    1  UNL1        0.1003
     28 N           4.8009   40.9395    8.6365 N.ar    1  UNL1       -0.2290
@<TRIPOS>BOND
     1     1     2    1
     2     2     7   ar
     3     3     6   ar
     4     4     5   ar
     5     5    21    1
     6    23    28   ar
     7    24    25   ar
     8    26    27   ar
     9     8     3    1
    10     8     9    1
    11     9    10    1
    12    10    11    1
    13    11    13    1
    14    12    13    1
    15    12     8    1
    16    14    13    1
    17    14    15    1
    18    16    19   ar
    19    17    20   ar
    20    18    20    1
    21    21    23    1
    22    20    15   ar
    23     2     6   ar
    24     3     4   ar
    25     5     7   ar
    26    23    24   ar
    27    25    26   ar
    28    27    28   ar
    29    15    19   ar
    30    16    17   ar
    31    21    22    1
@<TRIPOS>MOLECULE
MolPort-046-956-527 MCULE-7643606038 PubChem-110095462
 28 31 0 0 0
SMALL
GASTEIGER

@<TRIPOS>ATOM
      1 C          14.2918   38.8346   11.4637 C.3     1  UNL1        0.0737
      2 C          13.5813   39.8194   10.6077 C.ar    1  UNL1        0.1406
      3 C          11.6724   41.1484   10.1793 C.ar    1  UNL1        0.0641
      4 C          12.2659   41.6377    9.0158 C.ar    1  UNL1        0.0492
      5 C          13.5414   41.1883    8.6751 C.ar    1  UNL1        0.1357
      6 N          12.3386   40.2469   10.9514 N.ar    1  UNL1       -0.2349
      7 N          14.1721   40.2865    9.4759 N.ar    1  UNL1       -0.2159
      8 C          10.2959   41.5951   10.5453 C.3     1  UNL1        0.0564
      9 C           9.9667   41.2312   11.9963 C.3     1  UNL1        0.0087
     10 C           8.4756   41.3937   12.3182 C.3     1  UNL1        0.0178
     11 C           7.7185   42.0741   11.1779 C.3     1  UNL1        0.0725
     12 C           9.2584   41.0042    9.5781 C.3     1  UNL1        0.0784
     13 N           7.8575   41.3063    9.9326 N.3     1  UNL1       -0.2660
     14 C           7.3248   42.1311    8.8589 C.3     1  UNL1        0.1371
     15 C           5.8353   42.2242    8.9657 C.ar    1  UNL1        0.1368
     16 C           3.8027   41.6835    9.3273 C.ar    1  UNL1        0.1189
     17 C           3.8355   43.0228    8.9711 C.ar    1  UNL1        0.0978
     18 C           5.6154   44.6535    8.3649 C.3     1  UNL1        0.1317
     19 N           5.0607   41.1864    9.3272 N.ar    1  UNL1       -0.2279
     20 N           5.1200   43.3427    8.7505 N.ar    1  UNL1       -0.3106
     21 N          14.1546   41.6752    7.4752 N.pl3   1  UNL1       -0.2833
     22 H          13.7331   41.4167    6.6239 H       1  UNL1        0.1550
     23 C          15.3220   42.5021    7.3947 C.ar    1  UNL1        0.1332
     24 C          16.4414   42.1739    8.1662 C.ar    1  UNL1        0.0345
     25 C          17.5827   42.9752    8.0967 C.ar    1  UNL1        0.0045
     26 C          17.5974   44.0913    7.2582 C.ar    1  UNL1        0.0208
     27 C          16.4625   44.3889    6.4989 C.ar    1  UNL1        0.1003
     28 N          15.3598   43.5963    6.5821 N.ar    1  UNL1       -0.2290
@<TRIPOS>BOND
     1     1     2    1
     2     2     7   ar
     3     3     6   ar
     4     4     5   ar
     5     5    21    1
     6    23    28   ar
     7    24    25   ar
     8    26    27   ar
     9     8     3    1
    10     8     9    1
    11     9    10    1
    12    10    11    1
    13    11    13    1
    14    12    13    1
    15    12     8    1
    16    14    13    1
    17    14    15    1
    18    16    19   ar
    19    17    20   ar
    20    18    20    1
    21    21    23    1
    22    20    15   ar
    23     2     6   ar
    24     3     4   ar
    25     5     7   ar
    26    23    24   ar
    27    25    26   ar
    28    27    28   ar
    29    15    19   ar
    30    16    17   ar
    31    21    22    1
@<TRIPOS>MOLECULE
MolPort-046-956-527 MCULE-7643606038 PubChem-110095462
 28 31 0 0 0
SMALL
GASTEIGER

@<TRIPOS>ATOM
      1 C           9.4916   38.4245    2.9546 C.3     1  UNL1        0.0737
      2 C           9.4522   39.0783    4.2882 C.ar    1  UNL1        0.1406
      3 C          10.5891   39.9001    6.1923 C.ar    1  UNL1        0.0641
      4 C           9.3742   40.2825    6.7609 C.ar    1  UNL1        0.0492
      5 C           8.1982   40.0440    6.0504 C.ar    1  UNL1        0.1357
      6 N          10.6058   39.3028    4.9694 N.ar    1  UNL1       -0.2349
      7 N           8.2604   39.4444    4.8302 N.ar    1  UNL1       -0.2159
      8 C          11.8562   40.1204    6.9500 C.3     1  UNL1        0.0564
      9 C          11.6983   39.7109    8.4175 C.3     1  UNL1        0.0087
     10 C          12.8611   40.1986    9.2912 C.3     1  UNL1        0.0178
     11 C          13.9923   40.7929    8.4525 C.3     1  UNL1        0.0725
     12 C          12.3131   41.5826    6.8302 C.3     1  UNL1        0.0784
     13 N          13.5012   41.9152    7.6407 N.3     1  UNL1       -0.2660
     14 C          14.5598   42.2627    6.7050 C.3     1  UNL1        0.1371
     15 C          15.7520   42.7876    7.4410 C.ar    1  UNL1        0.1368
     16 C          17.4104   42.8880    8.7805 C.ar    1  UNL1        0.1189
     17 C          17.3727   44.0669    8.0523 C.ar    1  UNL1        0.0978
     18 C          15.9208   44.9968    6.2573 C.3     1  UNL1        0.1317
     19 N          16.3939   42.0851    8.3909 N.ar    1  UNL1       -0.2279
     20 N          16.3263   43.9828    7.2163 N.ar    1  UNL1       -0.3106
     21 N           6.9441   40.4215    6.6313 N.pl3   1  UNL1       -0.2833
     22 H           6.2401   39.7336    6.6554 H       1  UNL1        0.1550
     23 C           6.6155   41.7034    7.1805 C.ar    1  UNL1        0.1332
     24 C           6.8112   42.8473    6.3999 C.ar    1  UNL1        0.0345
     25 C           6.4967   44.1012    6.9274 C.ar    1  UNL1        0.0045
     26 C           5.9885   44.2015    8.2238 C.ar    1  UNL1        0.0208
     27 C           5.8028   43.0381    8.9754 C.ar    1  UNL1        0.1003
     28 N           6.1170   41.8258    8.4437 N.ar    1  UNL1       -0.2290
@<TRIPOS>BOND
     1     1     2    1
     2     2     7   ar
     3     3     6   ar
     4     4     5   ar
     5     5    21    1
     6    23    28   ar
     7    24    25   ar
     8    26    27   ar
     9     8     3    1
    10     8     9    1
    11     9    10    1
    12    10    11    1
    13    11    13    1
    14    12    13    1
    15    12     8    1
    16    14    13    1
    17    14    15    1
    18    16    19   ar
    19    17    20   ar
    20    18    20    1
    21    21    23    1
    22    20    15   ar
    23     2     6   ar
    24     3     4   ar
    25     5     7   ar
    26    23    24   ar
    27    25    26   ar
    28    27    28   ar
    29    15    19   ar
    30    16    17   ar
    31    21    22    1
@<TRIPOS>MOLECULE
MolPort-046-956-527 MCULE-7643606038 PubChem-110095462
 28 31 0 0 0
SMALL
GASTEIGER

@<TRIPOS>ATOM
      1 C          14.5646   44.2354    5.4987 C.3     1  UNL1        0.0737
      2 C          14.1871   43.0442    6.3023 C.ar    1  UNL1        0.1406
      3 C          12.5940   41.3952    6.8823 C.ar    1  UNL1        0.0641
      4 C          13.4893   40.8427    7.7981 C.ar    1  UNL1        0.0492
      5 C          14.7474   41.4273    7.9401 C.ar    1  UNL1        0.1357
      6 N          12.9574   42.4863    6.1544 N.ar    1  UNL1       -0.2349
      7 N          15.0700   42.5175    7.1919 N.ar    1  UNL1       -0.2159
      8 C          11.2321   40.8015    6.7371 C.3     1  UNL1        0.0564
      9 C          10.9998   40.2995    5.3088 C.3     1  UNL1        0.0087
     10 C           9.5275   39.9656    5.0363 C.3     1  UNL1        0.0178
     11 C           8.6872   40.0169    6.3120 C.3     1  UNL1        0.0725
     12 C          10.1521   41.8135    7.1500 C.3     1  UNL1        0.0784
     13 N           8.7685   41.3464    6.9331 N.3     1  UNL1       -0.2660
     14 C           8.1527   41.2438    8.2473 C.3     1  UNL1        0.1371
     15 C           8.7221   42.2753    9.1696 C.ar    1  UNL1        0.1368
     16 C           9.9476   43.1935   10.6561 C.ar    1  UNL1        0.1189
     17 C           9.1019   44.1614   10.1367 C.ar    1  UNL1        0.0978
     18 C           7.3234   44.2134    8.3963 C.3     1  UNL1        0.1317
     19 N           9.7094   42.0114   10.0433 N.ar    1  UNL1       -0.2279
     20 N           8.3429   43.5652    9.2043 N.ar    1  UNL1       -0.3106
     21 N          15.6697   40.8750    8.8872 N.pl3   1  UNL1       -0.2833
     22 H          16.5915   41.2200    8.8635 H       1  UNL1        0.1550
     23 C          15.3801   39.8691    9.8657 C.ar    1  UNL1        0.1332
     24 C          14.1680   39.9268   10.5609 C.ar    1  UNL1        0.0345
     25 C          13.8780   38.9527   11.5183 C.ar    1  UNL1        0.0045
     26 C          14.7961   37.9316   11.7700 C.ar    1  UNL1        0.0208
     27 C          15.9966   37.9024   11.0553 C.ar    1  UNL1        0.1003
     28 N          16.2610   38.8619   10.1276 N.ar    1  UNL1       -0.2290
@<TRIPOS>BOND
     1     1     2    1
     2     2     7   ar
     3     3     6   ar
     4     4     5   ar
     5     5    21    1
     6    23    28   ar
     7    24    25   ar
     8    26    27   ar
     9     8     3    1
    10     8     9    1
    11     9    10    1
    12    10    11    1
    13    11    13    1
    14    12    13    1
    15    12     8    1
    16    14    13    1
    17    14    15    1
    18    16    19   ar
    19    17    20   ar
    20    18    20    1
    21    21    23    1
    22    20    15   ar
    23     2     6   ar
    24     3     4   ar
    25     5     7   ar
    26    23    24   ar
    27    25    26   ar
    28    27    28   ar
    29    15    19   ar
    30    16    17   ar
    31    21    22    1
@<TRIPOS>MOLECULE
MolPort-046-956-527 MCULE-7643606038 PubChem-110095462
 28 31 0 0 0
SMALL
GASTEIGER

@<TRIPOS>ATOM
      1 C          10.7622   40.6921    5.0164 C.3     1  UNL1        0.0737
      2 C          11.2696   40.9731    6.3842 C.ar    1  UNL1        0.1406
      3 C          10.8438   41.4890    8.6527 C.ar    1  UNL1        0.0641
      4 C          12.2138   41.5004    8.9142 C.ar    1  UNL1        0.0492
      5 C          13.0971   41.2374    7.8677 C.ar    1  UNL1        0.1357
      6 N          10.3972   41.2292    7.3935 N.ar    1  UNL1       -0.2349
      7 N          12.6079   40.9820    6.6237 N.ar    1  UNL1       -0.2159
      8 C           9.8834   41.7970    9.7532 C.3     1  UNL1        0.0564
      9 C          10.3991   41.2724   11.0966 C.3     1  UNL1        0.0087
     10 C           9.3212   41.2942   12.1880 C.3     1  UNL1        0.0178
     11 C           8.0599   42.0241   11.7269 C.3     1  UNL1        0.0725
     12 C           8.4922   41.2279    9.4347 C.3     1  UNL1        0.0784
     13 N           7.5064   41.3916   10.5213 N.3     1  UNL1       -0.2660
     14 C           6.4683   42.2748   10.0122 C.3     1  UNL1        0.1371
     15 C           6.7177   42.5933    8.5717 C.ar    1  UNL1        0.1368
     16 C           6.7504   42.4179    6.4451 C.ar    1  UNL1        0.1189
     17 C           7.2860   43.6507    6.7840 C.ar    1  UNL1        0.0978
     18 C           7.7089   44.8768    8.9084 C.3     1  UNL1        0.1317
     19 N           6.3906   41.7584    7.5699 N.ar    1  UNL1       -0.2279
     20 N           7.2544   43.7418    8.1226 N.ar    1  UNL1       -0.3106
     21 N          14.5068   41.2592    8.1232 N.pl3   1  UNL1       -0.2833
     22 H          14.8825   40.4903    8.6100 H       1  UNL1        0.1550
     23 C          15.4225   42.2920    7.7387 C.ar    1  UNL1        0.1332
     24 C          16.7275   42.2643    8.2408 C.ar    1  UNL1        0.0345
     25 C          17.6263   43.2679    7.8742 C.ar    1  UNL1        0.0045
     26 C          17.2166   44.2851    7.0102 C.ar    1  UNL1        0.0208
     27 C          15.9061   44.2809    6.5249 C.ar    1  UNL1        0.1003
     28 N          15.0451   43.2948    6.8955 N.ar    1  UNL1       -0.2290
@<TRIPOS>BOND
     1     1     2    1
     2     2     7   ar
     3     3     6   ar
     4     4     5   ar
     5     5    21    1
     6    23    28   ar
     7    24    25   ar
     8    26    27   ar
     9     8     3    1
    10     8     9    1
    11     9    10    1
    12    10    11    1
    13    11    13    1
    14    12    13    1
    15    12     8    1
    16    14    13    1
    17    14    15    1
    18    16    19   ar
    19    17    20   ar
    20    18    20    1
    21    21    23    1
    22    20    15   ar
    23     2     6   ar
    24     3     4   ar
    25     5     7   ar
    26    23    24   ar
    27    25    26   ar
    28    27    28   ar
    29    15    19   ar
    30    16    17   ar
    31    21    22    1
