@<TRIPOS>MOLECULE
Molport-047-071-916 MCULE-7355664274 PubChem-132948519
 25 27 0 0 0
SMALL
GASTEIGER

@<TRIPOS>ATOM
      1 N          15.5957   38.8519   11.3748 N.ar    1  UNL1       -0.2291
      2 C          16.1312   40.6638    9.3585 C.ar    1  UNL1       -0.0165
      3 C          17.1797   40.0978   10.0953 C.ar    1  UNL1        0.0166
      4 C          16.8873   39.1846   11.1093 C.ar    1  UNL1        0.1000
      5 C          14.5572   39.3876   10.6736 C.ar    1  UNL1        0.1329
      6 C          14.8134   40.3051    9.6515 C.ar    1  UNL1        0.0302
      7 N          15.4413   43.4683    6.9318 N.am    1  UNL1       -0.2757
      8 C          16.5707   44.3640    7.1731 C.3     1  UNL1        0.0937
      9 C          17.8233   43.5475    7.4770 C.3     1  UNL1        0.0219
     10 C          17.5521   42.5778    8.6233 C.3     1  UNL1        0.0078
     11 C          16.3930   41.6475    8.2628 C.3     1  UNL1        0.0424
     12 C          15.1352   42.4545    7.9396 C.3     1  UNL1        0.0980
     13 C          14.5531   43.7053    5.8287 C.2     1  UNL1        0.2492
     14 O          14.7906   44.6475    5.0230 O.2     1  UNL1       -0.2699
     15 C          13.3715   42.8505    5.6256 C.2     1  UNL1        0.0579
     16 C          12.7515   42.2549    6.6361 C.2     1  UNL1        0.0048
     17 N          13.2007   39.0292   10.9627 N.pl3   1  UNL1       -0.2834
     18 H          13.0604   38.3300   11.6415 H       1  UNL1        0.1550
     19 N          11.4896   39.0546    9.2281 N.ar    1  UNL1       -0.2349
     20 C          12.0286   39.5902   10.3594 C.ar    1  UNL1        0.1328
     21 C          11.4307   40.7082   10.9472 C.ar    1  UNL1        0.0344
     22 C          10.2884   41.2611   10.3658 C.ar    1  UNL1        0.0041
     23 C           9.7547   40.6950    9.2071 C.ar    1  UNL1        0.0148
     24 C          10.3772   39.5783    8.6463 C.ar    1  UNL1        0.0608
     25 C           9.8244   38.9610    7.4128 C.3     1  UNL1        0.0521
@<TRIPOS>BOND
     1     7    13   am
     2    17    20    1
     3     8     7    1
     4     8     9    1
     5     9    10    1
     6    10    11    1
     7    11    12    1
     8    11     2    1
     9    12     7    1
    10     3     4   ar
    11     5     1   ar
    12     5    17    1
    13     6     2   ar
    14    20    19   ar
    15    21    22   ar
    16    23    24   ar
    17    25    24    1
    18    13    15    1
    19     2     3   ar
    20     4     1   ar
    21     5     6   ar
    22    20    21   ar
    23    22    23   ar
    24    24    19   ar
    25    13    14    2
    26    15    16    2
    27    17    18    1
@<TRIPOS>MOLECULE
Molport-047-071-916 MCULE-7355664274 PubChem-132948519
 25 27 0 0 0
SMALL
GASTEIGER

@<TRIPOS>ATOM
      1 N          16.9853   38.8640   11.1957 N.ar    1  UNL1       -0.2291
      2 C          16.8178   40.7459    9.1795 C.ar    1  UNL1       -0.0165
      3 C          18.0547   40.1805    9.5159 C.ar    1  UNL1        0.0166
      4 C          18.1170   39.2316   10.5374 C.ar    1  UNL1        0.1000
      5 C          15.7699   39.3982   10.8886 C.ar    1  UNL1        0.1329
      6 C          15.6705   40.3509    9.8714 C.ar    1  UNL1        0.0302
      7 N          15.2248   43.4124    7.0389 N.am    1  UNL1       -0.2757
      8 C          16.2187   44.4825    7.0963 C.3     1  UNL1        0.0937
      9 C          17.6221   43.8846    7.1249 C.3     1  UNL1        0.0219
     10 C          17.7392   42.8754    8.2632 C.3     1  UNL1        0.0078
     11 C          16.6991   41.7670    8.0931 C.3     1  UNL1        0.0424
     12 C          15.2884   42.3548    8.0461 C.3     1  UNL1        0.0980
     13 C          14.1134   43.5053    6.1343 C.2     1  UNL1        0.2492
     14 O          14.0341   44.4795    5.3356 O.2     1  UNL1       -0.2699
     15 C          13.0699   42.4667    6.1259 C.2     1  UNL1        0.0579
     16 C          12.8598   41.6713    7.1669 C.2     1  UNL1        0.0048
     17 N          14.5847   39.0028   11.5894 N.pl3   1  UNL1       -0.2834
     18 H          14.5609   39.1792   12.5577 H       1  UNL1        0.1550
     19 N          13.3049   37.0187   10.9869 N.ar    1  UNL1       -0.2349
     20 C          13.4309   38.3754   11.0171 C.ar    1  UNL1        0.1328
     21 C          12.4181   39.1754   10.4813 C.ar    1  UNL1        0.0344
     22 C          11.2904   38.5721    9.9217 C.ar    1  UNL1        0.0041
     23 C          11.1839   37.1807    9.9022 C.ar    1  UNL1        0.0148
     24 C          12.2143   36.4116   10.4464 C.ar    1  UNL1        0.0608
     25 C          12.1198   34.9287   10.4354 C.3     1  UNL1        0.0521
@<TRIPOS>BOND
     1     7    13   am
     2    17    20    1
     3     8     7    1
     4     8     9    1
     5     9    10    1
     6    10    11    1
     7    11    12    1
     8    11     2    1
     9    12     7    1
    10     3     4   ar
    11     5     1   ar
    12     5    17    1
    13     6     2   ar
    14    20    19   ar
    15    21    22   ar
    16    23    24   ar
    17    25    24    1
    18    13    15    1
    19     2     3   ar
    20     4     1   ar
    21     5     6   ar
    22    20    21   ar
    23    22    23   ar
    24    24    19   ar
    25    13    14    2
    26    15    16    2
    27    17    18    1
@<TRIPOS>MOLECULE
Molport-047-071-916 MCULE-7355664274 PubChem-132948519
 25 27 0 0 0
SMALL
GASTEIGER

@<TRIPOS>ATOM
      1 N          10.5162   40.0548    6.7710 N.ar    1  UNL1       -0.2291
      2 C           8.0926   41.3256    7.1532 C.ar    1  UNL1       -0.0165
      3 C           8.2483   39.9804    7.5122 C.ar    1  UNL1        0.0166
      4 C           9.4809   39.3577    7.3108 C.ar    1  UNL1        0.1000
      5 C          10.3918   41.3638    6.4131 C.ar    1  UNL1        0.1329
      6 C           9.1720   42.0189    6.6006 C.ar    1  UNL1        0.0302
      7 N           5.0385   42.6069    8.9591 N.am    1  UNL1       -0.2757
      8 C           5.0672   44.0311    8.6325 C.3     1  UNL1        0.0937
      9 C           5.5814   44.2256    7.2092 C.3     1  UNL1        0.0219
     10 C           6.9277   43.5286    7.0379 C.3     1  UNL1        0.0078
     11 C           6.7916   42.0372    7.3484 C.3     1  UNL1        0.0424
     12 C           6.2611   41.8285    8.7671 C.3     1  UNL1        0.0980
     13 C           3.8984   42.0399    9.6230 C.2     1  UNL1        0.2492
     14 O           2.8884   42.7589    9.8599 O.2     1  UNL1       -0.2699
     15 C           3.8959   40.6224   10.0212 C.2     1  UNL1        0.0579
     16 C           4.0029   40.2472   11.2893 C.2     1  UNL1        0.0048
     17 N          11.4899   42.0875    5.8454 N.pl3   1  UNL1       -0.2834
     18 H          11.3275   42.5408    4.9866 H       1  UNL1        0.1550
     19 N          13.6700   43.1693    5.9668 N.ar    1  UNL1       -0.2349
     20 C          12.8018   42.2154    6.4068 C.ar    1  UNL1        0.1328
     21 C          13.1930   41.3421    7.4253 C.ar    1  UNL1        0.0344
     22 C          14.4695   41.4598    7.9779 C.ar    1  UNL1        0.0041
     23 C          15.3411   42.4446    7.5107 C.ar    1  UNL1        0.0148
     24 C          14.9179   43.3003    6.4920 C.ar    1  UNL1        0.0608
     25 C          15.8310   44.3554    5.9809 C.3     1  UNL1        0.0521
@<TRIPOS>BOND
     1     7    13   am
     2    17    20    1
     3     8     7    1
     4     8     9    1
     5     9    10    1
     6    10    11    1
     7    11    12    1
     8    11     2    1
     9    12     7    1
    10     3     4   ar
    11     5     1   ar
    12     5    17    1
    13     6     2   ar
    14    20    19   ar
    15    21    22   ar
    16    23    24   ar
    17    25    24    1
    18    13    15    1
    19     2     3   ar
    20     4     1   ar
    21     5     6   ar
    22    20    21   ar
    23    22    23   ar
    24    24    19   ar
    25    13    14    2
    26    15    16    2
    27    17    18    1
@<TRIPOS>MOLECULE
Molport-047-071-916 MCULE-7355664274 PubChem-132948519
 25 27 0 0 0
SMALL
GASTEIGER

@<TRIPOS>ATOM
      1 N          10.8540   41.5626    6.2714 N.ar    1  UNL1       -0.2291
      2 C          12.1060   39.6340    7.8037 C.ar    1  UNL1       -0.0165
      3 C          10.7355   39.5375    7.5298 C.ar    1  UNL1        0.0166
      4 C          10.1228   40.5224    6.7536 C.ar    1  UNL1        0.1000
      5 C          12.1881   41.6805    6.5228 C.ar    1  UNL1        0.1329
      6 C          12.8341   40.7127    7.2962 C.ar    1  UNL1        0.0302
      7 N          14.3074   38.2398   10.5314 N.am    1  UNL1       -0.2757
      8 C          13.4262   37.2590   11.1618 C.3     1  UNL1        0.0937
      9 C          12.5490   36.5958   10.1042 C.3     1  UNL1        0.0219
     10 C          11.8087   37.6571    9.2959 C.3     1  UNL1        0.0078
     11 C          12.8082   38.6047    8.6309 C.3     1  UNL1        0.0424
     12 C          13.7051   39.2637    9.6792 C.3     1  UNL1        0.0980
     13 C          15.6958   38.3022   10.8925 C.2     1  UNL1        0.2492
     14 O          16.1718   37.4601   11.7034 O.2     1  UNL1       -0.2699
     15 C          16.5706   39.3368   10.3160 C.2     1  UNL1        0.0579
     16 C          17.8921   39.2780   10.4174 C.2     1  UNL1        0.0048
     17 N          12.9477   42.7811    6.0091 N.pl3   1  UNL1       -0.2834
     18 H          12.4782   43.4033    5.4078 H       1  UNL1        0.1550
     19 N          14.9654   42.4919    7.3445 N.ar    1  UNL1       -0.2349
     20 C          14.3246   43.0635    6.2861 C.ar    1  UNL1        0.1328
     21 C          15.0191   43.9430    5.4511 C.ar    1  UNL1        0.0344
     22 C          16.3610   44.2237    5.7138 C.ar    1  UNL1        0.0041
     23 C          16.9957   43.6261    6.8037 C.ar    1  UNL1        0.0148
     24 C          16.2722   42.7523    7.6174 C.ar    1  UNL1        0.0608
     25 C          16.9299   42.1059    8.7826 C.3     1  UNL1        0.0521
@<TRIPOS>BOND
     1     7    13   am
     2    17    20    1
     3     8     7    1
     4     8     9    1
     5     9    10    1
     6    10    11    1
     7    11    12    1
     8    11     2    1
     9    12     7    1
    10     3     4   ar
    11     5     1   ar
    12     5    17    1
    13     6     2   ar
    14    20    19   ar
    15    21    22   ar
    16    23    24   ar
    17    25    24    1
    18    13    15    1
    19     2     3   ar
    20     4     1   ar
    21     5     6   ar
    22    20    21   ar
    23    22    23   ar
    24    24    19   ar
    25    13    14    2
    26    15    16    2
    27    17    18    1
@<TRIPOS>MOLECULE
Molport-047-071-916 MCULE-7355664274 PubChem-132948519
 25 27 0 0 0
SMALL
GASTEIGER

@<TRIPOS>ATOM
      1 N          15.4215   39.3358   10.7596 N.ar    1  UNL1       -0.2291
      2 C          12.8002   40.1311   10.3971 C.ar    1  UNL1       -0.0165
      3 C          13.1383   39.2755   11.4537 C.ar    1  UNL1        0.0166
      4 C          14.4683   38.8862   11.6189 C.ar    1  UNL1        0.1000
      5 C          15.1198   40.1685    9.7238 C.ar    1  UNL1        0.1329
      6 C          13.7985   40.5785    9.5286 C.ar    1  UNL1        0.0302
      7 N           9.4746   41.7362   11.1680 N.am    1  UNL1       -0.2757
      8 C           9.2833   42.6097   10.0120 C.3     1  UNL1        0.0937
      9 C           9.8397   41.9399    8.7591 C.3     1  UNL1        0.0219
     10 C          11.2915   41.5285    8.9850 C.3     1  UNL1        0.0078
     11 C          11.3893   40.5761   10.1777 C.3     1  UNL1        0.0424
     12 C          10.8193   41.2296   11.4370 C.3     1  UNL1        0.0980
     13 C           8.4088   41.5392   12.1099 C.2     1  UNL1        0.2492
     14 O           7.2805   42.0647   11.8999 O.2     1  UNL1       -0.2699
     15 C           8.6206   40.7204   13.3152 C.2     1  UNL1        0.0579
     16 C           9.1650   41.2185   14.4179 C.2     1  UNL1        0.0048
     17 N          16.1330   40.6355    8.8252 N.pl3   1  UNL1       -0.2834
     18 H          16.8679   40.0129    8.6212 H       1  UNL1        0.1550
     19 N          15.2051   42.3215    7.3305 N.ar    1  UNL1       -0.2349
     20 C          16.1799   41.9211    8.1947 C.ar    1  UNL1        0.1328
     21 C          17.2485   42.7769    8.4755 C.ar    1  UNL1        0.0344
     22 C          17.3019   44.0313    7.8655 C.ar    1  UNL1        0.0041
     23 C          16.2919   44.4192    6.9839 C.ar    1  UNL1        0.0148
     24 C          15.2388   43.5396    6.7260 C.ar    1  UNL1        0.0608
     25 C          14.1537   43.9338    5.7905 C.3     1  UNL1        0.0521
@<TRIPOS>BOND
     1     7    13   am
     2    17    20    1
     3     8     7    1
     4     8     9    1
     5     9    10    1
     6    10    11    1
     7    11    12    1
     8    11     2    1
     9    12     7    1
    10     3     4   ar
    11     5     1   ar
    12     5    17    1
    13     6     2   ar
    14    20    19   ar
    15    21    22   ar
    16    23    24   ar
    17    25    24    1
    18    13    15    1
    19     2     3   ar
    20     4     1   ar
    21     5     6   ar
    22    20    21   ar
    23    22    23   ar
    24    24    19   ar
    25    13    14    2
    26    15    16    2
    27    17    18    1
@<TRIPOS>MOLECULE
Molport-047-071-916 MCULE-7355664274 PubChem-132948519
 25 27 0 0 0
SMALL
GASTEIGER

@<TRIPOS>ATOM
      1 N          14.8022   39.6698   10.7244 N.ar    1  UNL1       -0.2291
      2 C          12.4221   40.4875    9.5836 C.ar    1  UNL1       -0.0165
      3 C          12.4159   39.7216   10.7567 C.ar    1  UNL1        0.0166
      4 C          13.6293   39.3191   11.3165 C.ar    1  UNL1        0.1000
      5 C          14.8367   40.4139    9.5832 C.ar    1  UNL1        0.1329
      6 C          13.6408   40.8341    8.9955 C.ar    1  UNL1        0.0302
      7 N           9.5125   40.4837    7.1827 N.am    1  UNL1       -0.2757
      8 C           8.3694   40.5628    8.0900 C.3     1  UNL1        0.0937
      9 C           8.7182   41.4428    9.2867 C.3     1  UNL1        0.0219
     10 C           9.9969   40.9416    9.9513 C.3     1  UNL1        0.0078
     11 C          11.1485   40.9424    8.9449 C.3     1  UNL1        0.0424
     12 C          10.8048   40.0770    7.7323 C.3     1  UNL1        0.0980
     13 C           9.3223   40.6206    5.7660 C.2     1  UNL1        0.2492
     14 O           8.1750   40.8820    5.3092 O.2     1  UNL1       -0.2699
     15 C          10.4588   40.4669    4.8426 C.2     1  UNL1        0.0579
     16 C          10.4543   39.5716    3.8634 C.2     1  UNL1        0.0048
     17 N          16.0788   40.7769    8.9689 N.pl3   1  UNL1       -0.2834
     18 H          16.8158   40.1279    9.0385 H       1  UNL1        0.1550
     19 N          15.5075   42.4571    7.2991 N.ar    1  UNL1       -0.2349
     20 C          16.3519   41.9934    8.2632 C.ar    1  UNL1        0.1328
     21 C          17.5081   42.7142    8.5739 C.ar    1  UNL1        0.0344
     22 C          17.7818   43.9006    7.8910 C.ar    1  UNL1        0.0041
     23 C          16.9021   44.3554    6.9076 C.ar    1  UNL1        0.0148
     24 C          15.7562   43.6106    6.6224 C.ar    1  UNL1        0.0608
     25 C          14.8071   44.0780    5.5789 C.3     1  UNL1        0.0521
@<TRIPOS>BOND
     1     7    13   am
     2    17    20    1
     3     8     7    1
     4     8     9    1
     5     9    10    1
     6    10    11    1
     7    11    12    1
     8    11     2    1
     9    12     7    1
    10     3     4   ar
    11     5     1   ar
    12     5    17    1
    13     6     2   ar
    14    20    19   ar
    15    21    22   ar
    16    23    24   ar
    17    25    24    1
    18    13    15    1
    19     2     3   ar
    20     4     1   ar
    21     5     6   ar
    22    20    21   ar
    23    22    23   ar
    24    24    19   ar
    25    13    14    2
    26    15    16    2
    27    17    18    1
@<TRIPOS>MOLECULE
Molport-047-071-916 MCULE-7355664274 PubChem-132948519
 25 27 0 0 0
SMALL
GASTEIGER

@<TRIPOS>ATOM
      1 N          17.0835   39.4147   10.9880 N.ar    1  UNL1       -0.2291
      2 C          14.3665   39.3137   10.4954 C.ar    1  UNL1       -0.0165
      3 C          14.9223   38.5652   11.5411 C.ar    1  UNL1        0.0166
      4 C          16.2969   38.6307   11.7729 C.ar    1  UNL1        0.1000
      5 C          16.5688   40.1526    9.9645 C.ar    1  UNL1        0.1329
      6 C          15.1967   40.1110    9.7040 C.ar    1  UNL1        0.0302
      7 N          11.0754   40.3184    8.9497 N.am    1  UNL1       -0.2757
      8 C          10.5914   39.0484    8.4124 C.3     1  UNL1        0.0937
      9 C          10.9876   37.9072    9.3445 C.3     1  UNL1        0.0219
     10 C          12.4921   37.9344    9.5968 C.3     1  UNL1        0.0078
     11 C          12.8995   39.2766   10.2065 C.3     1  UNL1        0.0424
     12 C          12.4929   40.4304    9.2893 C.3     1  UNL1        0.0980
     13 C          10.2190   41.4710    8.9640 C.2     1  UNL1        0.2492
     14 O           9.0216   41.3680    8.5780 O.2     1  UNL1       -0.2699
     15 C          10.7258   42.7709    9.4346 C.2     1  UNL1        0.0579
     16 C          10.1629   43.4223   10.4441 C.2     1  UNL1        0.0048
     17 N          17.4078   40.9747    9.1446 N.pl3   1  UNL1       -0.2834
     18 H          18.3676   40.7563    9.1307 H       1  UNL1        0.1550
     19 N          15.7291   42.1383    7.8157 N.ar    1  UNL1       -0.2349
     20 C          16.9847   42.0841    8.3429 C.ar    1  UNL1        0.1328
     21 C          17.8815   43.1282    8.1004 C.ar    1  UNL1        0.0344
     22 C          17.4773   44.2130    7.3203 C.ar    1  UNL1        0.0041
     23 C          16.1863   44.2460    6.7912 C.ar    1  UNL1        0.0148
     24 C          15.3161   43.1862    7.0532 C.ar    1  UNL1        0.0608
     25 C          13.9374   43.2027    6.4990 C.3     1  UNL1        0.0521
@<TRIPOS>BOND
     1     7    13   am
     2    17    20    1
     3     8     7    1
     4     8     9    1
     5     9    10    1
     6    10    11    1
     7    11    12    1
     8    11     2    1
     9    12     7    1
    10     3     4   ar
    11     5     1   ar
    12     5    17    1
    13     6     2   ar
    14    20    19   ar
    15    21    22   ar
    16    23    24   ar
    17    25    24    1
    18    13    15    1
    19     2     3   ar
    20     4     1   ar
    21     5     6   ar
    22    20    21   ar
    23    22    23   ar
    24    24    19   ar
    25    13    14    2
    26    15    16    2
    27    17    18    1
@<TRIPOS>MOLECULE
Molport-047-071-916 MCULE-7355664274 PubChem-132948519
 25 27 0 0 0
SMALL
GASTEIGER

@<TRIPOS>ATOM
      1 N          13.7769   40.2507    9.4200 N.ar    1  UNL1       -0.2291
      2 C          11.3075   41.2505   10.1531 C.ar    1  UNL1       -0.0165
      3 C          12.0254   40.4291   11.0321 C.ar    1  UNL1        0.0166
      4 C          13.2709   39.9349   10.6421 C.ar    1  UNL1        0.1000
      5 C          13.0996   41.0472    8.5460 C.ar    1  UNL1        0.1329
      6 C          11.8499   41.5597    8.9035 C.ar    1  UNL1        0.0302
      7 N           7.6447   42.0842    9.8077 N.am    1  UNL1       -0.2757
      8 C           7.0954   41.5650   11.0586 C.3     1  UNL1        0.0937
      9 C           8.0982   41.7718   12.1898 C.3     1  UNL1        0.0219
     10 C           9.4468   41.1660   11.8125 C.3     1  UNL1        0.0078
     11 C           9.9687   41.8042   10.5243 C.3     1  UNL1        0.0424
     12 C           8.9648   41.6184    9.3861 C.3     1  UNL1        0.0980
     13 C           6.8287   42.8804    8.9348 C.2     1  UNL1        0.2492
     14 O           5.6564   43.1929    9.2833 O.2     1  UNL1       -0.2699
     15 C           7.3535   43.3427    7.6391 C.2     1  UNL1        0.0579
     16 C           6.5538   43.6837    6.6368 C.2     1  UNL1        0.0048
     17 N          13.6432   41.3728    7.2613 N.pl3   1  UNL1       -0.2834
     18 H          13.4201   40.7676    6.5176 H       1  UNL1        0.1550
     19 N          15.6930   42.6574    7.5544 N.ar    1  UNL1       -0.2349
     20 C          14.4803   42.4943    6.9544 C.ar    1  UNL1        0.1328
     21 C          14.0392   43.4359    6.0207 C.ar    1  UNL1        0.0344
     22 C          14.8487   44.5316    5.7158 C.ar    1  UNL1        0.0041
     23 C          16.0867   44.6772    6.3434 C.ar    1  UNL1        0.0148
     24 C          16.4964   43.7178    7.2712 C.ar    1  UNL1        0.0608
     25 C          17.8111   43.8548    7.9501 C.3     1  UNL1        0.0521
@<TRIPOS>BOND
     1     7    13   am
     2    17    20    1
     3     8     7    1
     4     8     9    1
     5     9    10    1
     6    10    11    1
     7    11    12    1
     8    11     2    1
     9    12     7    1
    10     3     4   ar
    11     5     1   ar
    12     5    17    1
    13     6     2   ar
    14    20    19   ar
    15    21    22   ar
    16    23    24   ar
    17    25    24    1
    18    13    15    1
    19     2     3   ar
    20     4     1   ar
    21     5     6   ar
    22    20    21   ar
    23    22    23   ar
    24    24    19   ar
    25    13    14    2
    26    15    16    2
    27    17    18    1
@<TRIPOS>MOLECULE
Molport-047-071-916 MCULE-7355664274 PubChem-132948519
 25 27 0 0 0
SMALL
GASTEIGER

@<TRIPOS>ATOM
      1 N          14.4563   39.8781   10.6803 N.ar    1  UNL1       -0.2291
      2 C          12.3120   40.0393    8.9451 C.ar    1  UNL1       -0.0165
      3 C          12.1308   39.5566   10.2477 C.ar    1  UNL1        0.0166
      4 C          13.2272   39.4835   11.1081 C.ar    1  UNL1        0.1000
      5 C          14.6601   40.3512    9.4187 C.ar    1  UNL1        0.1329
      6 C          13.5849   40.4381    8.5307 C.ar    1  UNL1        0.0302
      7 N           9.1552   41.3913    7.3839 N.am    1  UNL1       -0.2757
      8 C           9.5455   41.5331    5.9827 C.3     1  UNL1        0.0937
      9 C          10.4863   40.3980    5.5898 C.3     1  UNL1        0.0219
     10 C          11.6675   40.3383    6.5537 C.3     1  UNL1        0.0078
     11 C          11.1689   40.1361    7.9854 C.3     1  UNL1        0.0424
     12 C          10.2115   41.2588    8.3860 C.3     1  UNL1        0.0980
     13 C           7.7844   41.5660    7.7742 C.2     1  UNL1        0.2492
     14 O           6.9027   41.7711    6.8945 O.2     1  UNL1       -0.2699
     15 C           7.3986   41.4984    9.1935 C.2     1  UNL1        0.0579
     16 C           6.1296   41.4397    9.5761 C.2     1  UNL1        0.0048
     17 N          15.9598   40.7638    8.9798 N.pl3   1  UNL1       -0.2834
     18 H          16.7087   40.1545    9.1726 H       1  UNL1        0.1550
     19 N          15.4317   42.4981    7.3515 N.ar    1  UNL1       -0.2349
     20 C          16.2749   41.9778    8.2872 C.ar    1  UNL1        0.1328
     21 C          17.4716   42.6368    8.5815 C.ar    1  UNL1        0.0344
     22 C          17.7864   43.8202    7.9114 C.ar    1  UNL1        0.0041
     23 C          16.9070   44.3336    6.9569 C.ar    1  UNL1        0.0148
     24 C          15.7200   43.6497    6.6876 C.ar    1  UNL1        0.0608
     25 C          14.7706   44.1800    5.6750 C.3     1  UNL1        0.0521
@<TRIPOS>BOND
     1     7    13   am
     2    17    20    1
     3     8     7    1
     4     8     9    1
     5     9    10    1
     6    10    11    1
     7    11    12    1
     8    11     2    1
     9    12     7    1
    10     3     4   ar
    11     5     1   ar
    12     5    17    1
    13     6     2   ar
    14    20    19   ar
    15    21    22   ar
    16    23    24   ar
    17    25    24    1
    18    13    15    1
    19     2     3   ar
    20     4     1   ar
    21     5     6   ar
    22    20    21   ar
    23    22    23   ar
    24    24    19   ar
    25    13    14    2
    26    15    16    2
    27    17    18    1
@<TRIPOS>MOLECULE
Molport-047-071-916 MCULE-7355664274 PubChem-132948519
 25 27 0 0 0
SMALL
GASTEIGER

@<TRIPOS>ATOM
      1 N          10.9363   40.8618   11.4843 N.ar    1  UNL1       -0.2291
      2 C           8.7252   41.6324   10.0174 C.ar    1  UNL1       -0.0165
      3 C           8.6929   41.6749   11.4173 C.ar    1  UNL1        0.0166
      4 C           9.8207   41.2814   12.1391 C.ar    1  UNL1        0.1000
      5 C          10.9943   40.8107   10.1238 C.ar    1  UNL1        0.1329
      6 C           9.8836   41.1973    9.3695 C.ar    1  UNL1        0.0302
      7 N           5.3166   43.0602    9.2603 N.am    1  UNL1       -0.2757
      8 C           5.6152   44.0086    8.1891 C.3     1  UNL1        0.0937
      9 C           6.7215   43.4517    7.2980 C.3     1  UNL1        0.0219
     10 C           7.9356   43.0757    8.1421 C.3     1  UNL1        0.0078
     11 C           7.5423   42.0429    9.1993 C.3     1  UNL1        0.0424
     12 C           6.4222   42.5825   10.0891 C.3     1  UNL1        0.0980
     13 C           3.9545   42.7581    9.5999 C.2     1  UNL1        0.2492
     14 O           3.0134   43.2580    8.9234 O.2     1  UNL1       -0.2699
     15 C           3.6482   41.8615   10.7269 C.2     1  UNL1        0.0579
     16 C           3.9001   40.5597   10.6795 C.2     1  UNL1        0.0048
     17 N          12.1754   40.3668    9.4456 N.pl3   1  UNL1       -0.2834
     18 H          12.1599   40.3936    8.4616 H       1  UNL1        0.1550
     19 N          14.6031   40.3183    9.6504 N.ar    1  UNL1       -0.2349
     20 C          13.3771   39.8876   10.0612 C.ar    1  UNL1        0.1328
     21 C          13.2837   38.9607   11.1029 C.ar    1  UNL1        0.0344
     22 C          14.4497   38.4887   11.7083 C.ar    1  UNL1        0.0041
     23 C          15.6939   38.9444   11.2702 C.ar    1  UNL1        0.0148
     24 C          15.7507   39.8707   10.2272 C.ar    1  UNL1        0.0608
     25 C          17.0658   40.3682    9.7464 C.3     1  UNL1        0.0521
@<TRIPOS>BOND
     1     7    13   am
     2    17    20    1
     3     8     7    1
     4     8     9    1
     5     9    10    1
     6    10    11    1
     7    11    12    1
     8    11     2    1
     9    12     7    1
    10     3     4   ar
    11     5     1   ar
    12     5    17    1
    13     6     2   ar
    14    20    19   ar
    15    21    22   ar
    16    23    24   ar
    17    25    24    1
    18    13    15    1
    19     2     3   ar
    20     4     1   ar
    21     5     6   ar
    22    20    21   ar
    23    22    23   ar
    24    24    19   ar
    25    13    14    2
    26    15    16    2
    27    17    18    1
