@<TRIPOS>MOLECULE
MolPort-003-112-240 8959267 CSSS03436958108 MCULE-7209072938 PubChem-40887163 VPMSTIFGMPMPIM-UHFFFAOYSA-N ZINC000008959267
 26 28 0 0 0
SMALL
GASTEIGER

@<TRIPOS>ATOM
      1 N           6.2252   41.5948    8.7045 N.am    1  UNL1       -0.2559
      2 C           5.2245   41.6188    9.7420 C.ar    1  UNL1        0.0881
      3 C           5.0760   40.4894   10.5624 C.ar    1  UNL1        0.0193
      4 C           4.1727   40.4815   11.6246 C.ar    1  UNL1        0.0162
      5 C           3.3972   41.6074   11.8956 C.ar    1  UNL1        0.0534
      6 C           3.5169   42.7324   11.0716 C.ar    1  UNL1        0.0528
      7 C           4.4047   42.7513    9.9902 C.ar    1  UNL1        0.1533
      8 C           5.0133   43.9993    7.9123 C.3     1  UNL1        0.2138
      9 C           6.5298   44.0491    8.0226 C.3     1  UNL1        0.1095
     10 C           6.9494   45.1443    8.9914 C.3     1  UNL1        0.0129
     11 C           7.0834   44.3843    6.6507 C.3     1  UNL1        0.0129
     12 C           7.0825   42.7243    8.4654 C.2     1  UNL1        0.2320
     13 O           4.4014   43.9004    9.1919 O.3     1  UNL1       -0.4737
     14 O           8.3315   42.5892    8.5853 O.2     1  UNL1       -0.2744
     15 N           2.4852   41.5686   13.0014 N.am    1  UNL1       -0.2838
     16 C           1.1955   42.1937   13.0730 C.2     1  UNL1        0.2256
     17 O           0.7694   42.9129   12.1294 O.2     1  UNL1       -0.2748
     18 H           2.7738   41.0604   13.7937 H       1  UNL1        0.1549
     19 C           0.3688   42.0342   14.3072 C.3     1  UNL1        0.0768
     20 C          -0.5300   43.2442   14.4885 C.3     1  UNL1        0.0096
     21 C          -1.1019   41.9574   13.9391 C.3     1  UNL1        0.0096
     22 C           6.4436   40.3646    7.9401 C.3     1  UNL1        0.0983
     23 C           7.9236   39.9972    7.8584 C.3     1  UNL1        0.0219
     24 C           8.3301   39.5961    6.4508 C.3     1  UNL1        0.0017
     25 C           9.3234   40.6028    5.9112 C.3     1  UNL1        0.0001
     26 C           7.1136   39.5630    5.5457 C.3     1  UNL1        0.0001
@<TRIPOS>BOND
     1     1     2    1
     2    15    16   am
     3    22     1    1
     4    22    23    1
     5    23    24    1
     6    24    25    1
     7    24    26    1
     8     3     4   ar
     9     5     6   ar
    10     5    15    1
    11     7    13    1
    12     7     2   ar
    13     8    13    1
    14     8     9    1
    15     9    10    1
    16     9    11    1
    17     9    12    1
    18    12     1   am
    19    19    16    1
    20    19    20    1
    21    20    21    1
    22    21    19    1
    23     2     3   ar
    24     4     5   ar
    25     6     7   ar
    26    12    14    2
    27    16    17    2
    28    15    18    1
@<TRIPOS>MOLECULE
MolPort-003-112-240 8959267 CSSS03436958108 MCULE-7209072938 PubChem-40887163 VPMSTIFGMPMPIM-UHFFFAOYSA-N ZINC000008959267
 26 28 0 0 0
SMALL
GASTEIGER

@<TRIPOS>ATOM
      1 N          10.7598   39.7002    8.4882 N.am    1  UNL1       -0.2559
      2 C          11.8668   40.5431    8.1108 C.ar    1  UNL1        0.0881
      3 C          13.1341   40.2752    8.6521 C.ar    1  UNL1        0.0193
      4 C          14.2537   41.0135    8.2705 C.ar    1  UNL1        0.0162
      5 C          14.1337   42.0372    7.3325 C.ar    1  UNL1        0.0534
      6 C          12.8725   42.3317    6.8019 C.ar    1  UNL1        0.0528
      7 C          11.7352   41.6136    7.1872 C.ar    1  UNL1        0.1533
      8 C           9.2370   41.6189    7.1179 C.3     1  UNL1        0.2138
      9 C           8.9417   40.1747    6.7416 C.3     1  UNL1        0.1095
     10 C           9.1391   39.9714    5.2470 C.3     1  UNL1        0.0129
     11 C           7.4884   39.8966    7.0756 C.3     1  UNL1        0.0129
     12 C           9.8138   39.2265    7.5143 C.2     1  UNL1        0.2320
     13 O          10.5137   42.0292    6.6456 O.3     1  UNL1       -0.4737
     14 O           9.6790   37.9845    7.3361 O.2     1  UNL1       -0.2744
     15 N          15.3071   42.7702    6.9555 N.am    1  UNL1       -0.2838
     16 C          15.3526   44.0976    6.4124 C.2     1  UNL1        0.2256
     17 O          14.2932   44.7328    6.1610 O.2     1  UNL1       -0.2748
     18 H          16.1711   42.3155    7.0824 H       1  UNL1        0.1549
     19 C          16.6744   44.7147    6.0892 C.3     1  UNL1        0.0768
     20 C          17.7337   44.2020    7.0482 C.3     1  UNL1        0.0096
     21 C          17.6527   43.6416    5.6467 C.3     1  UNL1        0.0096
     22 C          10.6460   39.2344    9.8722 C.3     1  UNL1        0.0983
     23 C          11.8780   38.4472   10.3137 C.3     1  UNL1        0.0219
     24 C          11.8993   37.0495    9.7194 C.3     1  UNL1        0.0017
     25 C          11.4294   36.0563   10.7605 C.3     1  UNL1        0.0001
     26 C          13.3071   36.6880    9.2863 C.3     1  UNL1        0.0001
@<TRIPOS>BOND
     1     1     2    1
     2    15    16   am
     3    22     1    1
     4    22    23    1
     5    23    24    1
     6    24    25    1
     7    24    26    1
     8     3     4   ar
     9     5     6   ar
    10     5    15    1
    11     7    13    1
    12     7     2   ar
    13     8    13    1
    14     8     9    1
    15     9    10    1
    16     9    11    1
    17     9    12    1
    18    12     1   am
    19    19    16    1
    20    19    20    1
    21    20    21    1
    22    21    19    1
    23     2     3   ar
    24     4     5   ar
    25     6     7   ar
    26    12    14    2
    27    16    17    2
    28    15    18    1
@<TRIPOS>MOLECULE
MolPort-003-112-240 8959267 CSSS03436958108 MCULE-7209072938 PubChem-40887163 VPMSTIFGMPMPIM-UHFFFAOYSA-N ZINC000008959267
 26 28 0 0 0
SMALL
GASTEIGER

@<TRIPOS>ATOM
      1 N           9.1682   41.8448    7.3201 N.am    1  UNL1       -0.2559
      2 C          10.6042   41.7709    7.4234 C.ar    1  UNL1        0.0881
      3 C          11.3683   41.8119    6.2464 C.ar    1  UNL1        0.0193
      4 C          12.7620   41.8133    6.2893 C.ar    1  UNL1        0.0162
      5 C          13.4271   41.7783    7.5135 C.ar    1  UNL1        0.0534
      6 C          12.6789   41.7130    8.6945 C.ar    1  UNL1        0.0528
      7 C          11.2801   41.6919    8.6696 C.ar    1  UNL1        0.1533
      8 C           9.2527   41.2447   10.0607 C.3     1  UNL1        0.2138
      9 C           8.3638   42.4214    9.6869 C.3     1  UNL1        0.1095
     10 C           8.7993   43.6682   10.4418 C.3     1  UNL1        0.0129
     11 C           6.9451   42.0807   10.1019 C.3     1  UNL1        0.0129
     12 C           8.3958   42.6731    8.2063 C.2     1  UNL1        0.2320
     13 O          10.6296   41.5615    9.9015 O.3     1  UNL1       -0.4737
     14 O           7.6921   43.6042    7.7263 O.2     1  UNL1       -0.2744
     15 N          14.8610   41.7907    7.5216 N.am    1  UNL1       -0.2838
     16 C          15.7109   42.9289    7.3188 C.2     1  UNL1        0.2256
     17 O          15.2265   44.0606    7.0474 O.2     1  UNL1       -0.2748
     18 H          15.3087   40.9289    7.6830 H       1  UNL1        0.1549
     19 C          17.1941   42.7584    7.3766 C.3     1  UNL1        0.0768
     20 C          17.8671   43.7639    6.4596 C.3     1  UNL1        0.0096
     21 C          17.8371   44.0078    7.9510 C.3     1  UNL1        0.0096
     22 C           8.4852   41.1409    6.2321 C.3     1  UNL1        0.0983
     23 C           7.7632   39.8889    6.7255 C.3     1  UNL1        0.0219
     24 C           8.5707   38.6295    6.4625 C.3     1  UNL1        0.0017
     25 C           9.4182   38.3162    7.6769 C.3     1  UNL1        0.0001
     26 C           9.4759   38.8310    5.2624 C.3     1  UNL1        0.0001
@<TRIPOS>BOND
     1     1     2    1
     2    15    16   am
     3    22     1    1
     4    22    23    1
     5    23    24    1
     6    24    25    1
     7    24    26    1
     8     3     4   ar
     9     5     6   ar
    10     5    15    1
    11     7    13    1
    12     7     2   ar
    13     8    13    1
    14     8     9    1
    15     9    10    1
    16     9    11    1
    17     9    12    1
    18    12     1   am
    19    19    16    1
    20    19    20    1
    21    20    21    1
    22    21    19    1
    23     2     3   ar
    24     4     5   ar
    25     6     7   ar
    26    12    14    2
    27    16    17    2
    28    15    18    1
@<TRIPOS>MOLECULE
MolPort-003-112-240 8959267 CSSS03436958108 MCULE-7209072938 PubChem-40887163 VPMSTIFGMPMPIM-UHFFFAOYSA-N ZINC000008959267
 26 28 0 0 0
SMALL
GASTEIGER

@<TRIPOS>ATOM
      1 N          11.0012   40.0940    8.8865 N.am    1  UNL1       -0.2559
      2 C          12.1702   40.7697    8.3814 C.ar    1  UNL1        0.0881
      3 C          12.0522   42.1072    7.9717 C.ar    1  UNL1        0.0193
      4 C          13.1627   42.8314    7.5397 C.ar    1  UNL1        0.0162
      5 C          14.4222   42.2355    7.5113 C.ar    1  UNL1        0.0534
      6 C          14.5515   40.8955    7.8941 C.ar    1  UNL1        0.0528
      7 C          13.4451   40.1482    8.3125 C.ar    1  UNL1        0.1533
      8 C          12.6506   37.8254    8.7807 C.3     1  UNL1        0.2138
      9 C          11.9064   38.0191   10.0934 C.3     1  UNL1        0.1095
     10 C          12.8919   38.0834   11.2504 C.3     1  UNL1        0.0129
     11 C          11.0054   36.8159   10.2973 C.3     1  UNL1        0.0129
     12 C          11.0649   39.2630   10.0584 C.2     1  UNL1        0.2320
     13 O          13.6717   38.8004    8.6126 O.3     1  UNL1       -0.4737
     14 O          10.3634   39.5584   11.0649 O.2     1  UNL1       -0.2744
     15 N          15.5444   43.0119    7.0707 N.am    1  UNL1       -0.2838
     16 C          15.5663   43.9495    5.9846 C.2     1  UNL1        0.2256
     17 O          14.5501   44.1276    5.2601 O.2     1  UNL1       -0.2748
     18 H          16.3872   42.8889    7.5645 H       1  UNL1        0.1549
     19 C          16.8289   44.6855    5.6742 C.3     1  UNL1        0.0768
     20 C          17.8412   44.4686    6.7846 C.3     1  UNL1        0.0096
     21 C          17.9698   43.7014    5.4886 C.3     1  UNL1        0.0096
     22 C           9.7008   40.3316    8.2555 C.3     1  UNL1        0.0983
     23 C           9.2919   39.1815    7.3377 C.3     1  UNL1        0.0219
     24 C           8.6508   39.6820    6.0548 C.3     1  UNL1        0.0017
     25 C           8.9347   41.1605    5.8978 C.3     1  UNL1        0.0001
     26 C           7.1504   39.4655    6.1022 C.3     1  UNL1        0.0001
@<TRIPOS>BOND
     1     1     2    1
     2    15    16   am
     3    22     1    1
     4    22    23    1
     5    23    24    1
     6    24    25    1
     7    24    26    1
     8     3     4   ar
     9     5     6   ar
    10     5    15    1
    11     7    13    1
    12     7     2   ar
    13     8    13    1
    14     8     9    1
    15     9    10    1
    16     9    11    1
    17     9    12    1
    18    12     1   am
    19    19    16    1
    20    19    20    1
    21    20    21    1
    22    21    19    1
    23     2     3   ar
    24     4     5   ar
    25     6     7   ar
    26    12    14    2
    27    16    17    2
    28    15    18    1
@<TRIPOS>MOLECULE
MolPort-003-112-240 8959267 CSSS03436958108 MCULE-7209072938 PubChem-40887163 VPMSTIFGMPMPIM-UHFFFAOYSA-N ZINC000008959267
 26 28 0 0 0
SMALL
GASTEIGER

@<TRIPOS>ATOM
      1 N          15.2172   40.5640    9.0957 N.am    1  UNL1       -0.2559
      2 C          13.8473   41.0110    9.1400 C.ar    1  UNL1        0.0881
      3 C          12.9559   40.3689   10.0139 C.ar    1  UNL1        0.0193
      4 C          11.6377   40.8028   10.1492 C.ar    1  UNL1        0.0162
      5 C          11.1791   41.8952    9.4152 C.ar    1  UNL1        0.0534
      6 C          12.0493   42.5306    8.5220 C.ar    1  UNL1        0.0528
      7 C          13.3697   42.0971    8.3598 C.ar    1  UNL1        0.1533
      8 C          15.3839   42.2967    6.8938 C.3     1  UNL1        0.2138
      9 C          16.4926   42.4561    7.9233 C.3     1  UNL1        0.1095
     10 C          16.5301   43.8877    8.4363 C.3     1  UNL1        0.0129
     11 C          17.8110   42.1589    7.2343 C.3     1  UNL1        0.0129
     12 C          16.3091   41.4994    9.0668 C.2     1  UNL1        0.2320
     13 O          14.1371   42.7603    7.3959 O.3     1  UNL1       -0.4737
     14 O          17.1591   41.4868    9.9994 O.2     1  UNL1       -0.2744
     15 N           9.8205   42.3210    9.5856 N.am    1  UNL1       -0.2838
     16 C           8.6608   41.7676    8.9468 C.2     1  UNL1        0.2256
     17 O           8.7672   40.8450    8.0944 O.2     1  UNL1       -0.2748
     18 H           9.6674   43.0707   10.2051 H       1  UNL1        0.1549
     19 C           7.3119   42.3307    9.2565 C.3     1  UNL1        0.0768
     20 C           6.2908   41.2107    9.3442 C.3     1  UNL1        0.0096
     21 C           6.8396   41.8295   10.6094 C.3     1  UNL1        0.0096
     22 C          15.5125   39.1318    9.1796 C.3     1  UNL1        0.0983
     23 C          14.3304   38.2768    8.7279 C.3     1  UNL1        0.0219
     24 C          14.2649   36.9592    9.4809 C.3     1  UNL1        0.0017
     25 C          14.7998   35.8519    8.5983 C.3     1  UNL1        0.0001
     26 C          12.8301   36.6450    9.8590 C.3     1  UNL1        0.0001
@<TRIPOS>BOND
     1     1     2    1
     2    15    16   am
     3    22     1    1
     4    22    23    1
     5    23    24    1
     6    24    25    1
     7    24    26    1
     8     3     4   ar
     9     5     6   ar
    10     5    15    1
    11     7    13    1
    12     7     2   ar
    13     8    13    1
    14     8     9    1
    15     9    10    1
    16     9    11    1
    17     9    12    1
    18    12     1   am
    19    19    16    1
    20    19    20    1
    21    20    21    1
    22    21    19    1
    23     2     3   ar
    24     4     5   ar
    25     6     7   ar
    26    12    14    2
    27    16    17    2
    28    15    18    1
@<TRIPOS>MOLECULE
MolPort-003-112-240 8959267 CSSS03436958108 MCULE-7209072938 PubChem-40887163 VPMSTIFGMPMPIM-UHFFFAOYSA-N ZINC000008959267
 26 28 0 0 0
SMALL
GASTEIGER

@<TRIPOS>ATOM
      1 N          10.4311   40.0743    8.3252 N.am    1  UNL1       -0.2559
      2 C          11.6091   40.8033    7.9262 C.ar    1  UNL1        0.0881
      3 C          12.7625   40.7090    8.7209 C.ar    1  UNL1        0.0193
      4 C          13.9505   41.3362    8.3477 C.ar    1  UNL1        0.0162
      5 C          14.0155   42.0713    7.1654 C.ar    1  UNL1        0.0534
      6 C          12.8671   42.1943    6.3749 C.ar    1  UNL1        0.0528
      7 C          11.6615   41.5871    6.7433 C.ar    1  UNL1        0.1533
      8 C           9.2095   41.5350    6.2631 C.3     1  UNL1        0.2138
      9 C           8.9376   40.0384    6.2397 C.3     1  UNL1        0.1095
     10 C           9.3705   39.4475    4.9064 C.3     1  UNL1        0.0129
     11 C           7.4417   39.8367    6.3905 C.3     1  UNL1        0.0129
     12 C           9.6435   39.3438    7.3692 C.2     1  UNL1        0.2320
     13 O          10.5577   41.8245    5.9167 O.3     1  UNL1       -0.4737
     14 O           9.5033   38.0972    7.5070 O.2     1  UNL1       -0.2744
     15 N          15.2556   42.6955    6.8069 N.am    1  UNL1       -0.2838
     16 C          15.4412   44.0516    6.3762 C.2     1  UNL1        0.2256
     17 O          14.4569   44.8235    6.2198 O.2     1  UNL1       -0.2748
     18 H          16.0636   42.1356    6.8621 H       1  UNL1        0.1549
     19 C          16.8166   44.5395    6.0559 C.3     1  UNL1        0.0768
     20 C          17.7532   44.2453    7.2139 C.3     1  UNL1        0.0096
     21 C          17.7783   43.3672    5.9839 C.3     1  UNL1        0.0096
     22 C          10.0791   39.9921    9.7447 C.3     1  UNL1        0.0983
     23 C          10.8322   41.0242   10.5813 C.3     1  UNL1        0.0219
     24 C           9.9280   42.1609   11.0257 C.3     1  UNL1        0.0017
     25 C           8.4947   41.8277   10.6708 C.3     1  UNL1        0.0001
     26 C          10.3269   43.4479   10.3293 C.3     1  UNL1        0.0001
@<TRIPOS>BOND
     1     1     2    1
     2    15    16   am
     3    22     1    1
     4    22    23    1
     5    23    24    1
     6    24    25    1
     7    24    26    1
     8     3     4   ar
     9     5     6   ar
    10     5    15    1
    11     7    13    1
    12     7     2   ar
    13     8    13    1
    14     8     9    1
    15     9    10    1
    16     9    11    1
    17     9    12    1
    18    12     1   am
    19    19    16    1
    20    19    20    1
    21    20    21    1
    22    21    19    1
    23     2     3   ar
    24     4     5   ar
    25     6     7   ar
    26    12    14    2
    27    16    17    2
    28    15    18    1
@<TRIPOS>MOLECULE
MolPort-003-112-240 8959267 CSSS03436958108 MCULE-7209072938 PubChem-40887163 VPMSTIFGMPMPIM-UHFFFAOYSA-N ZINC000008959267
 26 28 0 0 0
SMALL
GASTEIGER

@<TRIPOS>ATOM
      1 N           9.6300   40.3367    6.7351 N.am    1  UNL1       -0.2559
      2 C          10.9119   40.9358    7.0110 C.ar    1  UNL1        0.0881
      3 C          11.2004   41.3370    8.3249 C.ar    1  UNL1        0.0193
      4 C          12.4484   41.8586    8.6637 C.ar    1  UNL1        0.0162
      5 C          13.4422   41.9876    7.6952 C.ar    1  UNL1        0.0534
      6 C          13.1614   41.6142    6.3759 C.ar    1  UNL1        0.0528
      7 C          11.9088   41.1064    6.0142 C.ar    1  UNL1        0.1533
      8 C          10.4460   40.5714    4.0598 C.3     1  UNL1        0.2138
      9 C           9.9076   39.2032    4.4505 C.3     1  UNL1        0.1095
     10 C          10.9473   38.1297    4.1661 C.3     1  UNL1        0.0129
     11 C           8.6852   38.9251    3.5965 C.3     1  UNL1        0.0129
     12 C           9.5123   39.1723    5.8995 C.2     1  UNL1        0.2320
     13 O          11.7109   40.8232    4.6583 O.3     1  UNL1       -0.4737
     14 O           9.0234   38.1129    6.3801 O.2     1  UNL1       -0.2744
     15 N          14.7173   42.5189    8.0799 N.am    1  UNL1       -0.2838
     16 C          15.5135   43.4585    7.3435 C.2     1  UNL1        0.2256
     17 O          15.1504   43.8675    6.2077 O.2     1  UNL1       -0.2748
     18 H          15.0846   42.2066    8.9383 H       1  UNL1        0.1549
     19 C          16.8190   43.9169    7.9074 C.3     1  UNL1        0.0768
     20 C          17.8380   42.7941    7.8332 C.3     1  UNL1        0.0096
     21 C          17.8805   43.9170    6.8222 C.3     1  UNL1        0.0096
     22 C           8.4312   40.8609    7.3937 C.3     1  UNL1        0.0983
     23 C           7.8563   42.0690    6.6573 C.3     1  UNL1        0.0219
     24 C           7.5630   43.2210    7.6030 C.3     1  UNL1        0.0017
     25 C           8.0372   42.8590    8.9942 C.3     1  UNL1        0.0001
     26 C           6.0724   43.4980    7.6416 C.3     1  UNL1        0.0001
@<TRIPOS>BOND
     1     1     2    1
     2    15    16   am
     3    22     1    1
     4    22    23    1
     5    23    24    1
     6    24    25    1
     7    24    26    1
     8     3     4   ar
     9     5     6   ar
    10     5    15    1
    11     7    13    1
    12     7     2   ar
    13     8    13    1
    14     8     9    1
    15     9    10    1
    16     9    11    1
    17     9    12    1
    18    12     1   am
    19    19    16    1
    20    19    20    1
    21    20    21    1
    22    21    19    1
    23     2     3   ar
    24     4     5   ar
    25     6     7   ar
    26    12    14    2
    27    16    17    2
    28    15    18    1
@<TRIPOS>MOLECULE
MolPort-003-112-240 8959267 CSSS03436958108 MCULE-7209072938 PubChem-40887163 VPMSTIFGMPMPIM-UHFFFAOYSA-N ZINC000008959267
 26 28 0 0 0
SMALL
GASTEIGER

@<TRIPOS>ATOM
      1 N          14.5361   37.5699    9.4010 N.am    1  UNL1       -0.2559
      2 C          13.3850   38.4255    9.5467 C.ar    1  UNL1        0.0881
      3 C          12.1061   37.8691    9.3865 C.ar    1  UNL1        0.0193
      4 C          10.9561   38.6326    9.5834 C.ar    1  UNL1        0.0162
      5 C          11.0572   39.9732    9.9506 C.ar    1  UNL1        0.0534
      6 C          12.3256   40.5481   10.0906 C.ar    1  UNL1        0.0528
      7 C          13.4902   39.8020    9.8789 C.ar    1  UNL1        0.1533
      8 C          15.9591   39.9853    9.5375 C.3     1  UNL1        0.2138
      9 C          16.4735   38.8831   10.4513 C.3     1  UNL1        0.1095
     10 C          16.4796   39.3598   11.8959 C.3     1  UNL1        0.0129
     11 C          17.9008   38.5712   10.0431 C.3     1  UNL1        0.0129
     12 C          15.6413   37.6395   10.3183 C.2     1  UNL1        0.2320
     13 O          14.7056   40.4875    9.9825 O.3     1  UNL1       -0.4737
     14 O          15.9493   36.6194   10.9944 O.2     1  UNL1       -0.2744
     15 N           9.8543   40.7266   10.1543 N.am    1  UNL1       -0.2838
     16 C           9.1910   41.5612    9.1938 C.2     1  UNL1        0.2256
     17 O           9.6802   41.7462    8.0468 O.2     1  UNL1       -0.2748
     18 H           9.4407   40.6650   11.0456 H       1  UNL1        0.1549
     19 C           7.9301   42.2648    9.5777 C.3     1  UNL1        0.0768
     20 C           6.7405   41.3439    9.3737 C.3     1  UNL1        0.0096
     21 C           7.2889   41.5680   10.7643 C.3     1  UNL1        0.0096
     22 C          14.5436   36.5409    8.3586 C.3     1  UNL1        0.0983
     23 C          14.5057   35.1316    8.9459 C.3     1  UNL1        0.0219
     24 C          15.6685   34.2843    8.4590 C.3     1  UNL1        0.0017
     25 C          16.1558   34.8204    7.1299 C.3     1  UNL1        0.0001
     26 C          15.2270   32.8440    8.2829 C.3     1  UNL1        0.0001
@<TRIPOS>BOND
     1     1     2    1
     2    15    16   am
     3    22     1    1
     4    22    23    1
     5    23    24    1
     6    24    25    1
     7    24    26    1
     8     3     4   ar
     9     5     6   ar
    10     5    15    1
    11     7    13    1
    12     7     2   ar
    13     8    13    1
    14     8     9    1
    15     9    10    1
    16     9    11    1
    17     9    12    1
    18    12     1   am
    19    19    16    1
    20    19    20    1
    21    20    21    1
    22    21    19    1
    23     2     3   ar
    24     4     5   ar
    25     6     7   ar
    26    12    14    2
    27    16    17    2
    28    15    18    1
@<TRIPOS>MOLECULE
MolPort-003-112-240 8959267 CSSS03436958108 MCULE-7209072938 PubChem-40887163 VPMSTIFGMPMPIM-UHFFFAOYSA-N ZINC000008959267
 26 28 0 0 0
SMALL
GASTEIGER

@<TRIPOS>ATOM
      1 N          13.5886   38.6417    8.5628 N.am    1  UNL1       -0.2559
      2 C          14.0991   37.2938    8.5953 C.ar    1  UNL1        0.0881
      3 C          14.8718   36.8387    7.5153 C.ar    1  UNL1        0.0193
      4 C          15.4485   35.5692    7.5235 C.ar    1  UNL1        0.0162
      5 C          15.2698   34.7236    8.6168 C.ar    1  UNL1        0.0534
      6 C          14.4821   35.1543    9.6905 C.ar    1  UNL1        0.0528
      7 C          13.8805   36.4176    9.6911 C.ar    1  UNL1        0.1533
      8 C          12.1581   37.8219   10.8342 C.3     1  UNL1        0.2138
      9 C          12.8950   39.1447   10.9809 C.3     1  UNL1        0.1095
     10 C          13.8540   39.0829   12.1601 C.3     1  UNL1        0.0129
     11 C          11.8633   40.2217   11.2577 C.3     1  UNL1        0.0129
     12 C          13.6403   39.4897    9.7230 C.2     1  UNL1        0.2320
     13 O          13.0619   36.7255   10.7833 O.3     1  UNL1       -0.4737
     14 O          14.2882   40.5713    9.6701 O.2     1  UNL1       -0.2744
     15 N          15.8848   33.4284    8.5965 N.am    1  UNL1       -0.2838
     16 C          17.2243   33.1077    8.9990 C.2     1  UNL1        0.2256
     17 O          18.0238   34.0087    9.3707 O.2     1  UNL1       -0.2748
     18 H          15.3306   32.6818    8.2730 H       1  UNL1        0.1549
     19 C          17.6952   31.6917    8.9243 C.3     1  UNL1        0.0768
     20 C          17.8966   31.2887    7.4745 C.3     1  UNL1        0.0096
     21 C          19.0915   31.6409    8.3306 C.3     1  UNL1        0.0096
     22 C          13.0952   39.1967    7.3002 C.3     1  UNL1        0.0983
     23 C          11.6083   39.5382    7.3680 C.3     1  UNL1        0.0219
     24 C          11.2011   40.5122    6.2758 C.3     1  UNL1        0.0017
     25 C          11.1963   39.7951    4.9428 C.3     1  UNL1        0.0001
     26 C          12.1811   41.6682    6.2156 C.3     1  UNL1        0.0001
@<TRIPOS>BOND
     1     1     2    1
     2    15    16   am
     3    22     1    1
     4    22    23    1
     5    23    24    1
     6    24    25    1
     7    24    26    1
     8     3     4   ar
     9     5     6   ar
    10     5    15    1
    11     7    13    1
    12     7     2   ar
    13     8    13    1
    14     8     9    1
    15     9    10    1
    16     9    11    1
    17     9    12    1
    18    12     1   am
    19    19    16    1
    20    19    20    1
    21    20    21    1
    22    21    19    1
    23     2     3   ar
    24     4     5   ar
    25     6     7   ar
    26    12    14    2
    27    16    17    2
    28    15    18    1
@<TRIPOS>MOLECULE
MolPort-003-112-240 8959267 CSSS03436958108 MCULE-7209072938 PubChem-40887163 VPMSTIFGMPMPIM-UHFFFAOYSA-N ZINC000008959267
 26 28 0 0 0
SMALL
GASTEIGER

@<TRIPOS>ATOM
      1 N          14.6415   40.3545    9.1102 N.am    1  UNL1       -0.2559
      2 C          13.2937   40.7332    8.7659 C.ar    1  UNL1        0.0881
      3 C          13.0765   41.4486    7.5778 C.ar    1  UNL1        0.0193
      4 C          11.7886   41.7814    7.1597 C.ar    1  UNL1        0.0162
      5 C          10.6835   41.4020    7.9194 C.ar    1  UNL1        0.0534
      6 C          10.8857   40.7092    9.1185 C.ar    1  UNL1        0.0528
      7 C          12.1718   40.3831    9.5627 C.ar    1  UNL1        0.1533
      8 C          13.4716   39.5882   11.5438 C.3     1  UNL1        0.2138
      9 C          14.3807   38.5456   10.9105 C.3     1  UNL1        0.1095
     10 C          13.6180   37.2475   10.6929 C.3     1  UNL1        0.0129
     11 C          15.5197   38.2766   11.8755 C.3     1  UNL1        0.0129
     12 C          14.9453   39.0406    9.6094 C.2     1  UNL1        0.2320
     13 O          12.2671   39.7461   10.8049 O.3     1  UNL1       -0.4737
     14 O          15.7402   38.3025    8.9646 O.2     1  UNL1       -0.2744
     15 N           9.3727   41.7522    7.4554 N.am    1  UNL1       -0.2838
     16 C           8.2369   42.0890    8.2651 C.2     1  UNL1        0.2256
     17 O           8.3005   42.0444    9.5233 O.2     1  UNL1       -0.2748
     18 H           9.2380   41.7627    6.4802 H       1  UNL1        0.1549
     19 C           6.9440   42.4449    7.6063 C.3     1  UNL1        0.0768
     20 C           6.8713   43.9451    7.3851 C.3     1  UNL1        0.0096
     21 C           7.2076   43.0296    6.2304 C.3     1  UNL1        0.0096
     22 C          15.7409   41.2888    8.8576 C.3     1  UNL1        0.0983
     23 C          15.4513   42.2052    7.6707 C.3     1  UNL1        0.0219
     24 C          16.6405   43.0883    7.3344 C.3     1  UNL1        0.0017
     25 C          17.4349   43.3583    8.5943 C.3     1  UNL1        0.0001
     26 C          16.1643   44.4063    6.7543 C.3     1  UNL1        0.0001
@<TRIPOS>BOND
     1     1     2    1
     2    15    16   am
     3    22     1    1
     4    22    23    1
     5    23    24    1
     6    24    25    1
     7    24    26    1
     8     3     4   ar
     9     5     6   ar
    10     5    15    1
    11     7    13    1
    12     7     2   ar
    13     8    13    1
    14     8     9    1
    15     9    10    1
    16     9    11    1
    17     9    12    1
    18    12     1   am
    19    19    16    1
    20    19    20    1
    21    20    21    1
    22    21    19    1
    23     2     3   ar
    24     4     5   ar
    25     6     7   ar
    26    12    14    2
    27    16    17    2
    28    15    18    1
