@<TRIPOS>MOLECULE
Molport-047-859-626 PubChem-165938361
 20 20 0 0 0
SMALL
GASTEIGER

@<TRIPOS>ATOM
      1 C          11.4618   40.9106    7.7673 C.ar    1  UNL1        0.0213
      2 C          11.2264   41.4346    6.4920 C.ar    1  UNL1        0.1044
      3 C          13.5609   41.7766    7.3081 C.ar    1  UNL1        0.0809
      4 C          12.7720   41.1049    8.2294 C.ar    1  UNL1        0.0203
      5 S          12.6519   42.1358    5.9363 S.2     1  UNL1       -0.0660
      6 C          15.5875   43.3286    7.1642 C.2     1  UNL1        0.3218
      7 O          14.9694   44.2248    6.5294 O.2     1  UNL1       -0.2657
      8 N          14.9363   42.1065    7.5341 N.am    1  UNL1       -0.2721
      9 H          15.4876   41.4283    7.9874 H       1  UNL1        0.1556
     10 C          17.0385   43.5118    7.4763 C.3     1  UNL1        0.4698
     11 F          17.1899   44.3395    8.5747 F       1  UNL1       -0.1620
     12 F          17.6204   42.2883    7.7538 F       1  UNL1       -0.1620
     13 F          17.6723   44.0803    6.3878 F       1  UNL1       -0.1620
     14 C           9.9690   41.4018    5.7263 C.2     1  UNL1        0.3439
     15 O           8.9941   42.1273    6.0553 O.2     1  UNL1       -0.2445
     16 O           9.8503   40.5614    4.6266 O.3     1  UNL1       -0.4768
     17 H          10.5698   40.0172    4.3730 H       1  UNL1        0.2954
     18 C          10.4298   40.2186    8.5944 C.3     1  UNL1        0.1695
     19 C          10.7826   38.0620    8.8916 C.3     1  UNL1        0.1746
     20 O          11.0426   39.3093    9.4569 O.3     1  UNL1       -0.3463
@<TRIPOS>BOND
     1    19    20    1
     2    18    20    1
     3    18     1    1
     4     2     5   ar
     5     2    14    1
     6     3     5   ar
     7     3     8    1
     8     4     1   ar
     9    10     6    1
    10    10    11    1
    11    10    12    1
    12    10    13    1
    13    14    16    1
    14     8     6   am
    15     1     2   ar
    16     3     4   ar
    17     6     7    2
    18    14    15    2
    19    16    17    1
    20     8     9    1
@<TRIPOS>MOLECULE
Molport-047-859-626 PubChem-165938361
 20 20 0 0 0
SMALL
GASTEIGER

@<TRIPOS>ATOM
      1 C          13.9047   39.5560    9.5282 C.ar    1  UNL1        0.0213
      2 C          15.0744   39.0514   10.1057 C.ar    1  UNL1        0.1044
      3 C          15.4250   41.1307    8.7692 C.ar    1  UNL1        0.0809
      4 C          14.1000   40.7223    8.7737 C.ar    1  UNL1        0.0203
      5 S          16.3525   40.0608    9.6814 S.2     1  UNL1       -0.0660
      6 C          17.2496   42.5584    7.6879 C.2     1  UNL1        0.3218
      7 O          18.1807   41.7722    8.0089 O.2     1  UNL1       -0.2657
      8 N          15.8945   42.2892    8.0700 N.am    1  UNL1       -0.2721
      9 H          15.2216   42.9661    7.8285 H       1  UNL1        0.1556
     10 C          17.5698   43.8238    6.9582 C.3     1  UNL1        0.4698
     11 F          18.6140   44.4835    7.5818 F       1  UNL1       -0.1620
     12 F          17.9347   43.5386    5.6551 F       1  UNL1       -0.1620
     13 F          16.4557   44.6415    6.9498 F       1  UNL1       -0.1620
     14 C          15.2143   37.8512   10.9474 C.2     1  UNL1        0.3439
     15 O          15.0773   36.6998   10.4573 O.2     1  UNL1       -0.2445
     16 O          15.5002   37.9845   12.3003 O.3     1  UNL1       -0.4768
     17 H          15.6042   38.8368   12.6754 H       1  UNL1        0.2954
     18 C          12.5593   38.9247    9.6679 C.3     1  UNL1        0.1695
     19 C          10.8767   40.1220   10.4419 C.3     1  UNL1        0.1746
     20 O          11.5688   39.8227    9.2696 O.3     1  UNL1       -0.3463
@<TRIPOS>BOND
     1    19    20    1
     2    18    20    1
     3    18     1    1
     4     2     5   ar
     5     2    14    1
     6     3     5   ar
     7     3     8    1
     8     4     1   ar
     9    10     6    1
    10    10    11    1
    11    10    12    1
    12    10    13    1
    13    14    16    1
    14     8     6   am
    15     1     2   ar
    16     3     4   ar
    17     6     7    2
    18    14    15    2
    19    16    17    1
    20     8     9    1
@<TRIPOS>MOLECULE
Molport-047-859-626 PubChem-165938361
 20 20 0 0 0
SMALL
GASTEIGER

@<TRIPOS>ATOM
      1 C           9.9602   41.6832    7.5216 C.ar    1  UNL1        0.0213
      2 C           9.8883   40.8973    6.3667 C.ar    1  UNL1        0.1044
      3 C          12.1855   41.7298    6.8790 C.ar    1  UNL1        0.0809
      4 C          11.2496   42.1551    7.8092 C.ar    1  UNL1        0.0203
      5 S          11.4319   40.7850    5.7057 S.2     1  UNL1       -0.0660
      6 C          14.1708   43.2796    6.4391 C.2     1  UNL1        0.3218
      7 O          13.4796   44.1407    5.8317 O.2     1  UNL1       -0.2657
      8 N          13.5743   42.0753    6.9376 N.am    1  UNL1       -0.2721
      9 H          14.1775   41.4226    7.3612 H       1  UNL1        0.1556
     10 C          15.6454   43.4831    6.5822 C.3     1  UNL1        0.4698
     11 F          16.2182   42.3956    7.2173 F       1  UNL1       -0.1620
     12 F          16.2254   43.6303    5.3353 F       1  UNL1       -0.1620
     13 F          15.8796   44.6216    7.3298 F       1  UNL1       -0.1620
     14 C           8.6944   40.2565    5.7902 C.2     1  UNL1        0.3439
     15 O           8.6299   39.0054    5.6663 O.2     1  UNL1       -0.2445
     16 O           7.6226   41.0369    5.3753 O.3     1  UNL1       -0.4768
     17 H           7.6601   41.9690    5.4629 H       1  UNL1        0.2954
     18 C           8.7878   42.0223    8.3808 C.3     1  UNL1        0.1695
     19 C           7.5172   43.7807    8.7779 C.3     1  UNL1        0.1746
     20 O           7.9910   42.9743    7.7444 O.3     1  UNL1       -0.3463
@<TRIPOS>BOND
     1    19    20    1
     2    18    20    1
     3    18     1    1
     4     2     5   ar
     5     2    14    1
     6     3     5   ar
     7     3     8    1
     8     4     1   ar
     9    10     6    1
    10    10    11    1
    11    10    12    1
    12    10    13    1
    13    14    16    1
    14     8     6   am
    15     1     2   ar
    16     3     4   ar
    17     6     7    2
    18    14    15    2
    19    16    17    1
    20     8     9    1
@<TRIPOS>MOLECULE
Molport-047-859-626 PubChem-165938361
 20 20 0 0 0
SMALL
GASTEIGER

@<TRIPOS>ATOM
      1 C          14.6663   42.2265    7.1829 C.ar    1  UNL1        0.0213
      2 C          15.9378   42.8046    7.2567 C.ar    1  UNL1        0.1044
      3 C          15.5111   41.0785    9.0093 C.ar    1  UNL1        0.0809
      4 C          14.4231   41.2590    8.1691 C.ar    1  UNL1        0.0203
      5 S          16.7625   42.1070    8.5474 S.2     1  UNL1       -0.0660
      6 C          15.7410   38.7393   10.0153 C.2     1  UNL1        0.3218
      7 O          15.8917   38.1756    8.8982 O.2     1  UNL1       -0.2657
      8 N          15.5229   40.1533   10.1026 N.am    1  UNL1       -0.2721
      9 H          15.3661   40.5244   11.0009 H       1  UNL1        0.1556
     10 C          15.7205   37.9141   11.2622 C.3     1  UNL1        0.4698
     11 F          16.9788   37.3963   11.5130 F       1  UNL1       -0.1620
     12 F          15.3341   38.6928   12.3379 F       1  UNL1       -0.1620
     13 F          14.8233   36.8744   11.1081 F       1  UNL1       -0.1620
     14 C          16.5033   43.8441    6.3803 C.2     1  UNL1        0.3439
     15 O          15.9646   44.9786    6.2941 O.2     1  UNL1       -0.2445
     16 O          17.6452   43.5754    5.6360 O.3     1  UNL1       -0.4768
     17 H          18.0541   42.7342    5.6926 H       1  UNL1        0.2954
     18 C          13.6333   42.5963    6.1709 C.3     1  UNL1        0.1695
     19 C          11.7604   41.4725    5.8658 C.3     1  UNL1        0.1746
     20 O          12.3574   42.4123    6.7044 O.3     1  UNL1       -0.3463
@<TRIPOS>BOND
     1    19    20    1
     2    18    20    1
     3    18     1    1
     4     2     5   ar
     5     2    14    1
     6     3     5   ar
     7     3     8    1
     8     4     1   ar
     9    10     6    1
    10    10    11    1
    11    10    12    1
    12    10    13    1
    13    14    16    1
    14     8     6   am
    15     1     2   ar
    16     3     4   ar
    17     6     7    2
    18    14    15    2
    19    16    17    1
    20     8     9    1
@<TRIPOS>MOLECULE
Molport-047-859-626 PubChem-165938361
 20 20 0 0 0
SMALL
GASTEIGER

@<TRIPOS>ATOM
      1 C          13.0790   37.0478   10.1832 C.ar    1  UNL1        0.0213
      2 C          13.9248   38.0351   10.6995 C.ar    1  UNL1        0.1044
      3 C          11.6377   38.8609   10.1337 C.ar    1  UNL1        0.0809
      4 C          11.7945   37.5106    9.8611 C.ar    1  UNL1        0.0203
      5 S          13.0715   39.4844   10.7604 S.2     1  UNL1       -0.0660
      6 C          10.1112   40.3486    8.7219 C.2     1  UNL1        0.3218
      7 O          10.9554   40.4914    7.7971 O.2     1  UNL1       -0.2657
      8 N          10.4240   39.5821    9.8920 N.am    1  UNL1       -0.2721
      9 H           9.7385   39.5482   10.5978 H       1  UNL1        0.1556
     10 C           8.7904   41.0439    8.6302 C.3     1  UNL1        0.4698
     11 F           8.3503   41.4013    9.8922 F       1  UNL1       -0.1620
     12 F           8.9095   42.1847    7.8575 F       1  UNL1       -0.1620
     13 F           7.8664   40.1959    8.0496 F       1  UNL1       -0.1620
     14 C          15.3245   37.8821   11.1306 C.2     1  UNL1        0.3439
     15 O          16.2533   38.4871   10.5338 O.2     1  UNL1       -0.2445
     16 O          15.6306   37.0606   12.2083 O.3     1  UNL1       -0.4768
     17 H          14.9470   36.6056   12.6596 H       1  UNL1        0.2954
     18 C          13.4817   35.6271    9.9656 C.3     1  UNL1        0.1695
     19 C          14.9473   34.4834    8.7791 C.3     1  UNL1        0.1746
     20 O          14.8409   35.5596    9.6585 O.3     1  UNL1       -0.3463
@<TRIPOS>BOND
     1    19    20    1
     2    18    20    1
     3    18     1    1
     4     2     5   ar
     5     2    14    1
     6     3     5   ar
     7     3     8    1
     8     4     1   ar
     9    10     6    1
    10    10    11    1
    11    10    12    1
    12    10    13    1
    13    14    16    1
    14     8     6   am
    15     1     2   ar
    16     3     4   ar
    17     6     7    2
    18    14    15    2
    19    16    17    1
    20     8     9    1
@<TRIPOS>MOLECULE
Molport-047-859-626 PubChem-165938361
 20 20 0 0 0
SMALL
GASTEIGER

@<TRIPOS>ATOM
      1 C          13.6447   38.3092    9.3953 C.ar    1  UNL1        0.0213
      2 C          12.5481   39.1767    9.4335 C.ar    1  UNL1        0.1044
      3 C          14.7369   40.3314    9.1039 C.ar    1  UNL1        0.0809
      4 C          14.8760   38.9563    9.2139 C.ar    1  UNL1        0.0203
      5 S          13.1108   40.7504    9.2360 S.2     1  UNL1       -0.0660
      6 C          15.9463   42.2442    7.9144 C.2     1  UNL1        0.3218
      7 O          15.0478   42.3904    7.0429 O.2     1  UNL1       -0.2657
      8 N          15.8393   41.2269    8.9185 N.am    1  UNL1       -0.2721
      9 H          16.5966   41.1348    9.5407 H       1  UNL1        0.1556
     10 C          17.1735   43.0971    7.8604 C.3     1  UNL1        0.4698
     11 F          16.8317   44.4086    7.5822 F       1  UNL1       -0.1620
     12 F          17.8328   43.0541    9.0753 F       1  UNL1       -0.1620
     13 F          18.0144   42.6265    6.8698 F       1  UNL1       -0.1620
     14 C          11.1297   38.8230    9.6115 C.2     1  UNL1        0.3439
     15 O          10.4039   39.4551   10.4230 O.2     1  UNL1       -0.2445
     16 O          10.5798   37.7791    8.8782 O.3     1  UNL1       -0.4768
     17 H          11.1110   37.3019    8.2715 H       1  UNL1        0.2954
     18 C          13.5489   36.8275    9.5486 C.3     1  UNL1        0.1695
     19 C          14.3357   36.9652   11.6043 C.3     1  UNL1        0.1746
     20 O          13.2433   36.5049   10.8710 O.3     1  UNL1       -0.3463
@<TRIPOS>BOND
     1    19    20    1
     2    18    20    1
     3    18     1    1
     4     2     5   ar
     5     2    14    1
     6     3     5   ar
     7     3     8    1
     8     4     1   ar
     9    10     6    1
    10    10    11    1
    11    10    12    1
    12    10    13    1
    13    14    16    1
    14     8     6   am
    15     1     2   ar
    16     3     4   ar
    17     6     7    2
    18    14    15    2
    19    16    17    1
    20     8     9    1
@<TRIPOS>MOLECULE
Molport-047-859-626 PubChem-165938361
 20 20 0 0 0
SMALL
GASTEIGER

@<TRIPOS>ATOM
      1 C          12.1023   40.7860    9.6043 C.ar    1  UNL1        0.0213
      2 C          13.2457   40.0303    9.8834 C.ar    1  UNL1        0.1044
      3 C          13.5705   41.7214    8.0758 C.ar    1  UNL1        0.0809
      4 C          12.2815   41.7343    8.5863 C.ar    1  UNL1        0.0203
      5 S          14.4829   40.5465    8.8659 S.2     1  UNL1       -0.0660
      6 C          15.3329   43.1298    6.8729 C.2     1  UNL1        0.3218
      7 O          16.2257   42.9122    7.7353 O.2     1  UNL1       -0.2657
      8 N          14.0150   42.5869    7.0246 N.am    1  UNL1       -0.2721
      9 H          13.3513   42.8327    6.3403 H       1  UNL1        0.1556
     10 C          15.6306   44.0224    5.7106 C.3     1  UNL1        0.4698
     11 F          15.4846   45.3485    6.0771 F       1  UNL1       -0.1620
     12 F          16.9281   43.8176    5.2776 F       1  UNL1       -0.1620
     13 F          14.7566   43.7368    4.6789 F       1  UNL1       -0.1620
     14 C          13.3920   38.9602   10.8844 C.2     1  UNL1        0.3439
     15 O          13.9792   39.1746   11.9771 O.2     1  UNL1       -0.2445
     16 O          12.8782   37.6958   10.6254 O.3     1  UNL1       -0.4768
     17 H          12.4393   37.5253    9.8153 H       1  UNL1        0.2954
     18 C          10.7910   40.6114   10.2957 C.3     1  UNL1        0.1695
     19 C           9.4987   41.2396   11.9688 C.3     1  UNL1        0.1746
     20 O          10.5919   41.6488   11.2070 O.3     1  UNL1       -0.3463
@<TRIPOS>BOND
     1    19    20    1
     2    18    20    1
     3    18     1    1
     4     2     5   ar
     5     2    14    1
     6     3     5   ar
     7     3     8    1
     8     4     1   ar
     9    10     6    1
    10    10    11    1
    11    10    12    1
    12    10    13    1
    13    14    16    1
    14     8     6   am
    15     1     2   ar
    16     3     4   ar
    17     6     7    2
    18    14    15    2
    19    16    17    1
    20     8     9    1
@<TRIPOS>MOLECULE
Molport-047-859-626 PubChem-165938361
 20 20 0 0 0
SMALL
GASTEIGER

@<TRIPOS>ATOM
      1 C          11.7735   40.1871    7.2776 C.ar    1  UNL1        0.0213
      2 C          12.0116   39.9011    8.6259 C.ar    1  UNL1        0.1044
      3 C          13.6757   41.4651    7.6172 C.ar    1  UNL1        0.0809
      4 C          12.7096   41.0628    6.7078 C.ar    1  UNL1        0.0203
      5 S          13.3855   40.7433    9.1111 S.2     1  UNL1       -0.0660
      6 C          14.6328   43.6195    6.6275 C.2     1  UNL1        0.3218
      7 O          13.5159   44.0332    6.2159 O.2     1  UNL1       -0.2657
      8 N          14.7503   42.3539    7.2902 N.am    1  UNL1       -0.2721
      9 H          15.6572   42.0680    7.5453 H       1  UNL1        0.1556
     10 C          15.8633   44.4265    6.3611 C.3     1  UNL1        0.4698
     11 F          16.6442   43.8045    5.4033 F       1  UNL1       -0.1620
     12 F          15.5138   45.6849    5.9060 F       1  UNL1       -0.1620
     13 F          16.5904   44.5514    7.5297 F       1  UNL1       -0.1620
     14 C          11.2253   39.0243    9.5098 C.2     1  UNL1        0.3439
     15 O          11.3945   37.7769    9.4979 O.2     1  UNL1       -0.2445
     16 O          10.2827   39.5743   10.3694 O.3     1  UNL1       -0.4768
     17 H          10.1487   40.5015   10.3864 H       1  UNL1        0.2954
     18 C          10.6461   39.6148    6.4842 C.3     1  UNL1        0.1695
     19 C           9.5762   39.8719    4.5729 C.3     1  UNL1        0.1746
     20 O          10.1163   40.5898    5.6387 O.3     1  UNL1       -0.3463
@<TRIPOS>BOND
     1    19    20    1
     2    18    20    1
     3    18     1    1
     4     2     5   ar
     5     2    14    1
     6     3     5   ar
     7     3     8    1
     8     4     1   ar
     9    10     6    1
    10    10    11    1
    11    10    12    1
    12    10    13    1
    13    14    16    1
    14     8     6   am
    15     1     2   ar
    16     3     4   ar
    17     6     7    2
    18    14    15    2
    19    16    17    1
    20     8     9    1
@<TRIPOS>MOLECULE
Molport-047-859-626 PubChem-165938361
 20 20 0 0 0
SMALL
GASTEIGER

@<TRIPOS>ATOM
      1 C          15.2477   43.1495    7.1337 C.ar    1  UNL1        0.0213
      2 C          15.7076   42.1782    8.0289 C.ar    1  UNL1        0.1044
      3 C          13.3563   41.8188    7.2705 C.ar    1  UNL1        0.0809
      4 C          13.9254   42.9516    6.7091 C.ar    1  UNL1        0.0203
      5 S          14.4692   41.0686    8.2883 S.2     1  UNL1       -0.0660
      6 C          10.8491   41.7406    7.7653 C.2     1  UNL1        0.3218
      7 O          10.9415   42.4423    8.8080 O.2     1  UNL1       -0.2657
      8 N          12.0145   41.3925    7.0068 N.am    1  UNL1       -0.2721
      9 H          11.8797   40.8036    6.2295 H       1  UNL1        0.1556
     10 C           9.5156   41.2059    7.3505 C.3     1  UNL1        0.4698
     11 F           8.5112   41.7961    8.0967 F       1  UNL1       -0.1620
     12 F           9.2949   41.4731    6.0116 F       1  UNL1       -0.1620
     13 F           9.4882   39.8389    7.5518 F       1  UNL1       -0.1620
     14 C          17.0355   42.0963    8.6601 C.2     1  UNL1        0.3439
     15 O          17.6552   41.0021    8.7200 O.2     1  UNL1       -0.2445
     16 O          17.6169   43.2372    9.1989 O.3     1  UNL1       -0.4768
     17 H          17.1644   44.0568    9.1597 H       1  UNL1        0.2954
     18 C          16.0586   44.3127    6.6673 C.3     1  UNL1        0.1695
     19 C          17.8790   43.7840    5.5401 C.3     1  UNL1        0.1746
     20 O          16.5267   44.0784    5.3742 O.3     1  UNL1       -0.3463
@<TRIPOS>BOND
     1    19    20    1
     2    18    20    1
     3    18     1    1
     4     2     5   ar
     5     2    14    1
     6     3     5   ar
     7     3     8    1
     8     4     1   ar
     9    10     6    1
    10    10    11    1
    11    10    12    1
    12    10    13    1
    13    14    16    1
    14     8     6   am
    15     1     2   ar
    16     3     4   ar
    17     6     7    2
    18    14    15    2
    19    16    17    1
    20     8     9    1
@<TRIPOS>MOLECULE
Molport-047-859-626 PubChem-165938361
 20 20 0 0 0
SMALL
GASTEIGER

@<TRIPOS>ATOM
      1 C           8.5261   40.6407    7.1722 C.ar    1  UNL1        0.0213
      2 C           8.1066   39.8543    6.0943 C.ar    1  UNL1        0.1044
      3 C           6.2373   40.6798    7.5286 C.ar    1  UNL1        0.0809
      4 C           7.4776   41.1025    7.9817 C.ar    1  UNL1        0.0203
      5 S           6.4284   39.7379    6.1453 S.2     1  UNL1       -0.0660
      6 C           4.8067   41.1899    9.5853 C.2     1  UNL1        0.3218
      7 O           5.7518   41.0093   10.3991 O.2     1  UNL1       -0.2657
      8 N           5.0030   41.0077    8.1771 N.am    1  UNL1       -0.2721
      9 H           4.2133   41.1188    7.5999 H       1  UNL1        0.1556
     10 C           3.4445   41.5316   10.0991 C.3     1  UNL1        0.4698
     11 F           3.2645   42.9034   10.0994 F       1  UNL1       -0.1620
     12 F           2.4779   40.9532    9.2968 F       1  UNL1       -0.1620
     13 F           3.3094   41.0550   11.3892 F       1  UNL1       -0.1620
     14 C           8.9477   39.2184    5.0663 C.2     1  UNL1        0.3439
     15 O           9.1079   39.7572    3.9398 O.2     1  UNL1       -0.2445
     16 O           9.5744   38.0084    5.3365 O.3     1  UNL1       -0.4768
     17 H           9.4619   37.5988    6.1717 H       1  UNL1        0.2954
     18 C           9.9526   40.9624    7.4718 C.3     1  UNL1        0.1695
     19 C          11.7446   41.5523    6.3296 C.3     1  UNL1        0.1746
     20 O          10.4227   41.9211    6.5739 O.3     1  UNL1       -0.3463
@<TRIPOS>BOND
     1    19    20    1
     2    18    20    1
     3    18     1    1
     4     2     5   ar
     5     2    14    1
     6     3     5   ar
     7     3     8    1
     8     4     1   ar
     9    10     6    1
    10    10    11    1
    11    10    12    1
    12    10    13    1
    13    14    16    1
    14     8     6   am
    15     1     2   ar
    16     3     4   ar
    17     6     7    2
    18    14    15    2
    19    16    17    1
    20     8     9    1
