@<TRIPOS>MOLECULE
MolPort-002-628-419 9328254 PubChem-1635251 ZINC000009328254 ZINC09328254
 26 28 0 0 0
SMALL
GASTEIGER

@<TRIPOS>ATOM
      1 C          15.2484   37.6555    9.2089 C.ar    1  UNL1        0.1568
      2 C          14.2623   38.6059    8.9952 C.ar    1  UNL1        0.0689
      3 C          14.2655   39.9874    8.8309 C.ar    1  UNL1        0.0074
      4 C          13.0158   40.6148    8.6883 C.ar    1  UNL1        0.0179
      5 C          12.9381   41.9972    8.5055 C.ar    1  UNL1        0.0012
      6 C          11.6909   42.6139    8.3672 C.ar    1  UNL1       -0.0042
      7 C          10.5169   41.8538    8.4120 C.ar    1  UNL1       -0.0204
      8 C           9.1975   42.5211    8.2644 C.3     1  UNL1        0.0311
      9 C          10.5797   40.4690    8.5967 C.ar    1  UNL1        0.0149
     10 C          11.8178   39.8368    8.7351 C.ar    1  UNL1        0.0826
     11 C          13.0959   37.9000    9.0476 C.ar    1  UNL1        0.1621
     12 N          13.3528   36.6066    9.2938 N.ar    1  UNL1       -0.2329
     13 N          14.6678   36.4454    9.4023 N.ar    1  UNL1       -0.1527
     14 N          11.8777   38.4845    8.9241 N.ar    1  UNL1       -0.2268
     15 C          17.4922   37.4107   10.4003 C.2     1  UNL1        0.2263
     16 N          16.6602   37.8688    9.3261 N.am    1  UNL1       -0.2679
     17 O          16.9757   37.0862   11.5046 O.2     1  UNL1       -0.2748
     18 H          17.0983   38.3754    8.6045 H       1  UNL1        0.1563
     19 C          18.9909   37.4561   10.2557 C.3     1  UNL1        0.0692
     20 C          19.5220   38.8580   10.5046 C.3     1  UNL1        0.0091
     21 C          19.3720   37.0305    8.8518 C.3     1  UNL1        0.0091
     22 C          19.6523   36.5184   11.2501 C.3     1  UNL1        0.0091
     23 C          12.3753   35.5383    9.4302 C.3     1  UNL1        0.1292
     24 C          12.4771   34.9118   10.8109 C.3     1  UNL1        0.0264
     25 C          10.3522   36.2131   10.8786 C.3     1  UNL1        0.0001
     26 C          11.2689   35.2832   11.6514 C.3     1  UNL1        0.0021
@<TRIPOS>BOND
     1    25    26    1
     2    26    24    1
     3    24    23    1
     4    23    12    1
     5     1    16    1
     6     1     2   ar
     7    19    15    1
     8    19    20    1
     9    19    21    1
    10    19    22    1
    11     3     4   ar
    12     5     6   ar
    13     7     9   ar
    14     8     7    1
    15    10    14   ar
    16    10     4   ar
    17    11    12   ar
    18    11     2   ar
    19    12    13   ar
    20    16    15   am
    21     1    13   ar
    22    15    17    2
    23     2     3   ar
    24     4     5   ar
    25     6     7   ar
    26     9    10   ar
    27    11    14   ar
    28    16    18    1
@<TRIPOS>MOLECULE
MolPort-002-628-419 9328254 PubChem-1635251 ZINC000009328254 ZINC09328254
 26 28 0 0 0
SMALL
GASTEIGER

@<TRIPOS>ATOM
      1 C          12.3031   41.5872    6.7596 C.ar    1  UNL1        0.1568
      2 C          13.2775   41.0641    7.5953 C.ar    1  UNL1        0.0689
      3 C          13.3086   40.0205    8.5149 C.ar    1  UNL1        0.0074
      4 C          14.5065   39.8342    9.2264 C.ar    1  UNL1        0.0179
      5 C          14.6196   38.7990   10.1569 C.ar    1  UNL1        0.0012
      6 C          15.8138   38.6221   10.8625 C.ar    1  UNL1       -0.0042
      7 C          16.8988   39.4781   10.6429 C.ar    1  UNL1       -0.0204
      8 C          18.1622   39.2801   11.3995 C.3     1  UNL1        0.0311
      9 C          16.7987   40.5202    9.7158 C.ar    1  UNL1        0.0149
     10 C          15.6133   40.7100    9.0012 C.ar    1  UNL1        0.0826
     11 C          14.3513   41.8868    7.4185 C.ar    1  UNL1        0.1621
     12 N          14.0466   42.8581    6.5448 N.ar    1  UNL1       -0.2329
     13 N          12.7918   42.6898    6.1396 N.ar    1  UNL1       -0.1527
     14 N          15.5137   41.7341    8.1015 N.ar    1  UNL1       -0.2268
     15 C          10.4520   40.2925    5.5717 C.2     1  UNL1        0.2263
     16 N          10.9479   41.1472    6.6108 N.am    1  UNL1       -0.2679
     17 O          11.1092   40.1500    4.5042 O.2     1  UNL1       -0.2748
     18 H          10.2990   41.4595    7.2821 H       1  UNL1        0.1563
     19 C           9.0803   39.6829    5.6973 C.3     1  UNL1        0.0692
     20 C           9.0519   38.6190    6.7820 C.3     1  UNL1        0.0091
     21 C           8.6921   39.0466    4.3775 C.3     1  UNL1        0.0091
     22 C           8.0541   40.7445    6.0517 C.3     1  UNL1        0.0091
     23 C          14.9213   43.9320    6.1011 C.3     1  UNL1        0.1292
     24 C          15.9654   44.2271    7.1650 C.3     1  UNL1        0.0264
     25 C          18.2166   43.1578    7.1215 C.3     1  UNL1        0.0001
     26 C          17.3524   44.2659    6.5494 C.3     1  UNL1        0.0021
@<TRIPOS>BOND
     1    25    26    1
     2    26    24    1
     3    24    23    1
     4    23    12    1
     5     1    16    1
     6     1     2   ar
     7    19    15    1
     8    19    20    1
     9    19    21    1
    10    19    22    1
    11     3     4   ar
    12     5     6   ar
    13     7     9   ar
    14     8     7    1
    15    10    14   ar
    16    10     4   ar
    17    11    12   ar
    18    11     2   ar
    19    12    13   ar
    20    16    15   am
    21     1    13   ar
    22    15    17    2
    23     2     3   ar
    24     4     5   ar
    25     6     7   ar
    26     9    10   ar
    27    11    14   ar
    28    16    18    1
@<TRIPOS>MOLECULE
MolPort-002-628-419 9328254 PubChem-1635251 ZINC000009328254 ZINC09328254
 26 28 0 0 0
SMALL
GASTEIGER

@<TRIPOS>ATOM
      1 C          11.8182   41.9598    7.3638 C.ar    1  UNL1        0.1568
      2 C          12.7789   41.3252    8.1356 C.ar    1  UNL1        0.0689
      3 C          12.7346   40.5017    9.2561 C.ar    1  UNL1        0.0074
      4 C          13.9667   40.0932    9.7954 C.ar    1  UNL1        0.0179
      5 C          14.0040   39.2549   10.9117 C.ar    1  UNL1        0.0012
      6 C          15.2338   38.8553   11.4437 C.ar    1  UNL1       -0.0042
      7 C          16.4306   39.2916   10.8645 C.ar    1  UNL1       -0.0204
      8 C          17.7311   38.8605   11.4395 C.3     1  UNL1        0.0311
      9 C          16.4081   40.1331    9.7478 C.ar    1  UNL1        0.0149
     10 C          15.1880   40.5406    9.2028 C.ar    1  UNL1        0.0826
     11 C          13.9658   41.7412    7.6069 C.ar    1  UNL1        0.1621
     12 N          13.7438   42.5875    6.5899 N.ar    1  UNL1       -0.2329
     13 N          12.4318   42.7354    6.4360 N.ar    1  UNL1       -0.1527
     14 N          15.1671   41.3699    8.1166 N.ar    1  UNL1       -0.2268
     15 C           9.4381   41.5573    6.5350 C.2     1  UNL1        0.2263
     16 N          10.3962   41.9290    7.5349 N.am    1  UNL1       -0.2679
     17 O           9.7616   41.5687    5.3156 O.2     1  UNL1       -0.2748
     18 H          10.0453   42.1860    8.4182 H       1  UNL1        0.1563
     19 C           8.0087   41.2950    6.9311 C.3     1  UNL1        0.0692
     20 C           7.4883   40.0199    6.2887 C.3     1  UNL1        0.0091
     21 C           7.1436   42.4565    6.4839 C.3     1  UNL1        0.0091
     22 C           7.8904   41.1456    8.4375 C.3     1  UNL1        0.0091
     23 C          14.7511   43.2514    5.7777 C.3     1  UNL1        0.1292
     24 C          15.4019   44.3738    6.5689 C.3     1  UNL1        0.0264
     25 C          17.5586   43.9617    7.7487 C.3     1  UNL1        0.0001
     26 C          16.9118   44.3180    6.4232 C.3     1  UNL1        0.0021
@<TRIPOS>BOND
     1    25    26    1
     2    26    24    1
     3    24    23    1
     4    23    12    1
     5     1    16    1
     6     1     2   ar
     7    19    15    1
     8    19    20    1
     9    19    21    1
    10    19    22    1
    11     3     4   ar
    12     5     6   ar
    13     7     9   ar
    14     8     7    1
    15    10    14   ar
    16    10     4   ar
    17    11    12   ar
    18    11     2   ar
    19    12    13   ar
    20    16    15   am
    21     1    13   ar
    22    15    17    2
    23     2     3   ar
    24     4     5   ar
    25     6     7   ar
    26     9    10   ar
    27    11    14   ar
    28    16    18    1
@<TRIPOS>MOLECULE
MolPort-002-628-419 9328254 PubChem-1635251 ZINC000009328254 ZINC09328254
 26 28 0 0 0
SMALL
GASTEIGER

@<TRIPOS>ATOM
      1 C          11.9430   39.8637    8.6297 C.ar    1  UNL1        0.1568
      2 C          13.0309   40.6752    8.3481 C.ar    1  UNL1        0.0689
      3 C          13.2891   41.6557    7.3954 C.ar    1  UNL1        0.0074
      4 C          14.5731   42.2277    7.4020 C.ar    1  UNL1        0.0179
      5 C          14.9036   43.2280    6.4852 C.ar    1  UNL1        0.0012
      6 C          16.1839   43.7899    6.4966 C.ar    1  UNL1       -0.0042
      7 C          17.1392   43.3550    7.4220 C.ar    1  UNL1       -0.0204
      8 C          18.4965   43.9596    7.4236 C.3     1  UNL1        0.0311
      9 C          16.8228   42.3526    8.3443 C.ar    1  UNL1        0.0149
     10 C          15.5477   41.7816    8.3475 C.ar    1  UNL1        0.0826
     11 C          13.9927   40.2673    9.2256 C.ar    1  UNL1        0.1621
     12 N          13.5275   39.2615    9.9816 N.ar    1  UNL1       -0.2329
     13 N          12.2751   38.9999    9.6209 N.ar    1  UNL1       -0.1527
     14 N          15.2421   40.7959    9.2437 N.ar    1  UNL1       -0.2268
     15 C          10.4919   39.5694    6.5508 C.2     1  UNL1        0.2263
     16 N          10.6829   39.8204    7.9496 N.am    1  UNL1       -0.2679
     17 O          11.4522   39.7178    5.7460 O.2     1  UNL1       -0.2748
     18 H           9.8757   39.9771    8.4911 H       1  UNL1        0.1563
     19 C           9.1115   39.2707    6.0273 C.3     1  UNL1        0.0692
     20 C           8.1885   40.4646    6.2065 C.3     1  UNL1        0.0091
     21 C           8.5347   38.0889    6.7809 C.3     1  UNL1        0.0091
     22 C           9.1626   38.9327    4.5479 C.3     1  UNL1        0.0091
     23 C          14.2519   38.5531   11.0250 C.3     1  UNL1        0.1292
     24 C          13.7770   37.1117   11.1027 C.3     1  UNL1        0.0264
     25 C          13.4763   35.1036    9.6569 C.3     1  UNL1        0.0001
     26 C          14.3590   36.3000    9.9596 C.3     1  UNL1        0.0021
@<TRIPOS>BOND
     1    25    26    1
     2    26    24    1
     3    24    23    1
     4    23    12    1
     5     1    16    1
     6     1     2   ar
     7    19    15    1
     8    19    20    1
     9    19    21    1
    10    19    22    1
    11     3     4   ar
    12     5     6   ar
    13     7     9   ar
    14     8     7    1
    15    10    14   ar
    16    10     4   ar
    17    11    12   ar
    18    11     2   ar
    19    12    13   ar
    20    16    15   am
    21     1    13   ar
    22    15    17    2
    23     2     3   ar
    24     4     5   ar
    25     6     7   ar
    26     9    10   ar
    27    11    14   ar
    28    16    18    1
@<TRIPOS>MOLECULE
MolPort-002-628-419 9328254 PubChem-1635251 ZINC000009328254 ZINC09328254
 26 28 0 0 0
SMALL
GASTEIGER

@<TRIPOS>ATOM
      1 C          11.1725   42.0267    8.4692 C.ar    1  UNL1        0.1568
      2 C          12.1731   41.2751    9.0651 C.ar    1  UNL1        0.0689
      3 C          12.2635   40.5400   10.2429 C.ar    1  UNL1        0.0074
      4 C          13.5054   39.9477   10.5303 C.ar    1  UNL1        0.0179
      5 C          13.6706   39.1830   11.6872 C.ar    1  UNL1        0.0012
      6 C          14.9100   38.5995   11.9672 C.ar    1  UNL1       -0.0042
      7 C          15.9892   38.7778   11.0945 C.ar    1  UNL1       -0.0204
      8 C          17.3015   38.1530   11.4035 C.3     1  UNL1        0.0311
      9 C          15.8388   39.5429    9.9336 C.ar    1  UNL1        0.0149
     10 C          14.6068   40.1316    9.6381 C.ar    1  UNL1        0.0826
     11 C          13.2516   41.4382    8.2457 C.ar    1  UNL1        0.1621
     12 N          12.9346   42.2498    7.2257 N.ar    1  UNL1       -0.2329
     13 N          11.6654   42.6232    7.3556 N.ar    1  UNL1       -0.1527
     14 N          14.4631   40.8863    8.5076 N.ar    1  UNL1       -0.2268
     15 C           8.6437   42.2103    8.1775 C.2     1  UNL1        0.2263
     16 N           9.8463   42.2634    8.9565 N.am    1  UNL1       -0.2679
     17 O           8.7016   42.2971    6.9202 O.2     1  UNL1       -0.2748
     18 H           9.7522   42.4821    9.9118 H       1  UNL1        0.1563
     19 C           7.3057   42.1974    8.8693 C.3     1  UNL1        0.0692
     20 C           6.3670   41.1904    8.2257 C.3     1  UNL1        0.0091
     21 C           6.6814   43.5756    8.7787 C.3     1  UNL1        0.0091
     22 C           7.4643   41.8250   10.3328 C.3     1  UNL1        0.0091
     23 C          13.8139   42.6722    6.1470 C.3     1  UNL1        0.1292
     24 C          15.0709   43.3075    6.7177 C.3     1  UNL1        0.0264
     25 C          17.2821   44.0588    5.8465 C.3     1  UNL1        0.0001
     26 C          15.7786   44.1286    5.6550 C.3     1  UNL1        0.0021
@<TRIPOS>BOND
     1    25    26    1
     2    26    24    1
     3    24    23    1
     4    23    12    1
     5     1    16    1
     6     1     2   ar
     7    19    15    1
     8    19    20    1
     9    19    21    1
    10    19    22    1
    11     3     4   ar
    12     5     6   ar
    13     7     9   ar
    14     8     7    1
    15    10    14   ar
    16    10     4   ar
    17    11    12   ar
    18    11     2   ar
    19    12    13   ar
    20    16    15   am
    21     1    13   ar
    22    15    17    2
    23     2     3   ar
    24     4     5   ar
    25     6     7   ar
    26     9    10   ar
    27    11    14   ar
    28    16    18    1
@<TRIPOS>MOLECULE
MolPort-002-628-419 9328254 PubChem-1635251 ZINC000009328254 ZINC09328254
 26 28 0 0 0
SMALL
GASTEIGER

@<TRIPOS>ATOM
      1 C          13.1793   40.1318   10.0422 C.ar    1  UNL1        0.1568
      2 C          13.5740   38.8351    9.7520 C.ar    1  UNL1        0.0689
      3 C          12.9639   37.5891    9.8556 C.ar    1  UNL1        0.0074
      4 C          13.7370   36.4699    9.5012 C.ar    1  UNL1        0.0179
      5 C          13.1899   35.1866    9.5657 C.ar    1  UNL1        0.0012
      6 C          13.9665   34.0783    9.2141 C.ar    1  UNL1       -0.0042
      7 C          15.2919   34.2465    8.7980 C.ar    1  UNL1       -0.0204
      8 C          16.1072   33.0607    8.4276 C.3     1  UNL1        0.0311
      9 C          15.8534   35.5255    8.7310 C.ar    1  UNL1        0.0149
     10 C          15.0908   36.6437    9.0773 C.ar    1  UNL1        0.0826
     11 C          14.8735   38.9583    9.3554 C.ar    1  UNL1        0.1621
     12 N          15.2519   40.2440    9.4157 N.ar    1  UNL1       -0.2329
     13 N          14.2248   40.9719    9.8425 N.ar    1  UNL1       -0.1527
     14 N          15.6431   37.8926    9.0196 N.ar    1  UNL1       -0.2268
     15 C          11.1435   41.6703   10.0911 C.2     1  UNL1        0.2263
     16 N          11.9219   40.5668   10.5732 N.am    1  UNL1       -0.2679
     17 O          11.6848   42.5624    9.3818 O.2     1  UNL1       -0.2748
     18 H          11.5597   40.0630   11.3376 H       1  UNL1        0.1563
     19 C           9.7194   41.8378   10.5523 C.3     1  UNL1        0.0692
     20 C           9.4962   41.1610   11.8945 C.3     1  UNL1        0.0091
     21 C           8.7859   41.2190    9.5310 C.3     1  UNL1        0.0091
     22 C           9.3763   43.3092   10.7039 C.3     1  UNL1        0.0091
     23 C          16.5622   40.7796    9.0817 C.3     1  UNL1        0.1292
     24 C          16.4124   42.0431    8.2508 C.3     1  UNL1        0.0264
     25 C          17.7452   44.0149    7.5099 C.3     1  UNL1        0.0001
     26 C          17.4484   43.0735    8.6622 C.3     1  UNL1        0.0021
@<TRIPOS>BOND
     1    25    26    1
     2    26    24    1
     3    24    23    1
     4    23    12    1
     5     1    16    1
     6     1     2   ar
     7    19    15    1
     8    19    20    1
     9    19    21    1
    10    19    22    1
    11     3     4   ar
    12     5     6   ar
    13     7     9   ar
    14     8     7    1
    15    10    14   ar
    16    10     4   ar
    17    11    12   ar
    18    11     2   ar
    19    12    13   ar
    20    16    15   am
    21     1    13   ar
    22    15    17    2
    23     2     3   ar
    24     4     5   ar
    25     6     7   ar
    26     9    10   ar
    27    11    14   ar
    28    16    18    1
@<TRIPOS>MOLECULE
MolPort-002-628-419 9328254 PubChem-1635251 ZINC000009328254 ZINC09328254
 26 28 0 0 0
SMALL
GASTEIGER

@<TRIPOS>ATOM
      1 C          11.2974   39.0818    8.0908 C.ar    1  UNL1        0.1568
      2 C          12.1828   40.0921    7.7490 C.ar    1  UNL1        0.0689
      3 C          13.4990   40.3855    8.0911 C.ar    1  UNL1        0.0074
      4 C          14.0459   41.5678    7.5631 C.ar    1  UNL1        0.0179
      5 C          15.3657   41.9232    7.8501 C.ar    1  UNL1        0.0012
      6 C          15.9013   43.1024    7.3231 C.ar    1  UNL1       -0.0042
      7 C          15.1217   43.9316    6.5090 C.ar    1  UNL1       -0.0204
      8 C          15.7022   45.1825    5.9556 C.3     1  UNL1        0.0311
      9 C          13.7980   43.5893    6.2153 C.ar    1  UNL1        0.0149
     10 C          13.2478   42.4139    6.7324 C.ar    1  UNL1        0.0826
     11 C          11.4494   40.9324    6.9633 C.ar    1  UNL1        0.1621
     12 N          10.1942   40.4736    6.8471 N.ar    1  UNL1       -0.2329
     13 N          10.0864   39.3442    7.5398 N.ar    1  UNL1       -0.1527
     14 N          11.9514   42.0844    6.4517 N.ar    1  UNL1       -0.2268
     15 C          12.7752   37.2815    9.1343 C.2     1  UNL1        0.2263
     16 N          11.5299   37.9723    8.9667 N.am    1  UNL1       -0.2679
     17 O          13.6741   37.3781    8.2543 O.2     1  UNL1       -0.2748
     18 H          10.7663   37.6558    9.5015 H       1  UNL1        0.1563
     19 C          12.9511   36.3281   10.2871 C.3     1  UNL1        0.0692
     20 C          13.6541   35.0563    9.8425 C.3     1  UNL1        0.0091
     21 C          11.5909   35.9645   10.8487 C.3     1  UNL1        0.0091
     22 C          13.7820   36.9661   11.3862 C.3     1  UNL1        0.0091
     23 C           9.1101   41.0910    6.0995 C.3     1  UNL1        0.1292
     24 C           8.3962   42.1149    6.9664 C.3     1  UNL1        0.0264
     25 C           6.5621   43.8008    7.0497 C.3     1  UNL1        0.0001
     26 C           7.3241   42.8314    6.1655 C.3     1  UNL1        0.0021
@<TRIPOS>BOND
     1    25    26    1
     2    26    24    1
     3    24    23    1
     4    23    12    1
     5     1    16    1
     6     1     2   ar
     7    19    15    1
     8    19    20    1
     9    19    21    1
    10    19    22    1
    11     3     4   ar
    12     5     6   ar
    13     7     9   ar
    14     8     7    1
    15    10    14   ar
    16    10     4   ar
    17    11    12   ar
    18    11     2   ar
    19    12    13   ar
    20    16    15   am
    21     1    13   ar
    22    15    17    2
    23     2     3   ar
    24     4     5   ar
    25     6     7   ar
    26     9    10   ar
    27    11    14   ar
    28    16    18    1
@<TRIPOS>MOLECULE
MolPort-002-628-419 9328254 PubChem-1635251 ZINC000009328254 ZINC09328254
 26 28 0 0 0
SMALL
GASTEIGER

@<TRIPOS>ATOM
      1 C          10.9721   40.1336    8.0230 C.ar    1  UNL1        0.1568
      2 C          12.0594   40.9374    7.7178 C.ar    1  UNL1        0.0689
      3 C          12.2600   42.0127    6.8581 C.ar    1  UNL1        0.0074
      4 C          13.5615   42.5392    6.7896 C.ar    1  UNL1        0.0179
      5 C          13.8385   43.6278    5.9597 C.ar    1  UNL1        0.0012
      6 C          15.1364   44.1438    5.8952 C.ar    1  UNL1       -0.0042
      7 C          16.1626   43.5749    6.6577 C.ar    1  UNL1       -0.0204
      8 C          17.5379   44.1320    6.5799 C.3     1  UNL1        0.0311
      9 C          15.9001   42.4832    7.4912 C.ar    1  UNL1        0.0149
     10 C          14.6085   41.9563    7.5685 C.ar    1  UNL1        0.0826
     11 C          13.0882   40.4007    8.4352 C.ar    1  UNL1        0.1621
     12 N          12.6605   39.3295    9.1202 N.ar    1  UNL1       -0.2329
     13 N          11.3672   39.1510    8.8700 N.ar    1  UNL1       -0.1527
     14 N          14.3547   40.8839    8.3770 N.ar    1  UNL1       -0.2268
     15 C           8.5358   40.8919    8.0773 C.2     1  UNL1        0.2263
     16 N           9.6475   40.2091    7.4826 N.am    1  UNL1       -0.2679
     17 O           8.5565   41.1818    9.3051 O.2     1  UNL1       -0.2748
     18 H           9.4862   39.7512    6.6261 H       1  UNL1        0.1563
     19 C           7.2873   41.1313    7.2693 C.3     1  UNL1        0.0692
     20 C           6.0825   41.3372    8.1724 C.3     1  UNL1        0.0091
     21 C           7.0308   39.9334    6.3768 C.3     1  UNL1        0.0091
     22 C           7.4416   42.3672    6.4008 C.3     1  UNL1        0.0091
     23 C          13.4576   38.4828    9.9937 C.3     1  UNL1        0.1292
     24 C          13.6464   39.1567   11.3425 C.3     1  UNL1        0.0264
     25 C          16.1200   39.0129   11.0714 C.3     1  UNL1        0.0001
     26 C          14.9466   38.7053   11.9828 C.3     1  UNL1        0.0021
@<TRIPOS>BOND
     1    25    26    1
     2    26    24    1
     3    24    23    1
     4    23    12    1
     5     1    16    1
     6     1     2   ar
     7    19    15    1
     8    19    20    1
     9    19    21    1
    10    19    22    1
    11     3     4   ar
    12     5     6   ar
    13     7     9   ar
    14     8     7    1
    15    10    14   ar
    16    10     4   ar
    17    11    12   ar
    18    11     2   ar
    19    12    13   ar
    20    16    15   am
    21     1    13   ar
    22    15    17    2
    23     2     3   ar
    24     4     5   ar
    25     6     7   ar
    26     9    10   ar
    27    11    14   ar
    28    16    18    1
@<TRIPOS>MOLECULE
MolPort-002-628-419 9328254 PubChem-1635251 ZINC000009328254 ZINC09328254
 26 28 0 0 0
SMALL
GASTEIGER

@<TRIPOS>ATOM
      1 C          14.2622   41.3234    7.9535 C.ar    1  UNL1        0.1568
      2 C          12.9611   41.0496    7.5617 C.ar    1  UNL1        0.0689
      3 C          12.0225   41.7162    6.7804 C.ar    1  UNL1        0.0074
      4 C          10.7550   41.1205    6.6608 C.ar    1  UNL1        0.0179
      5 C           9.7641   41.7225    5.8823 C.ar    1  UNL1        0.0012
      6 C           8.5050   41.1249    5.7707 C.ar    1  UNL1       -0.0042
      7 C           8.2297   39.9252    6.4363 C.ar    1  UNL1       -0.0204
      8 C           6.8875   39.3004    6.3103 C.3     1  UNL1        0.0311
      9 C           9.2117   39.3125    7.2211 C.ar    1  UNL1        0.0149
     10 C          10.4755   39.8955    7.3421 C.ar    1  UNL1        0.0826
     11 C          12.6514   39.8882    8.2069 C.ar    1  UNL1        0.1621
     12 N          13.6897   39.4884    8.9565 N.ar    1  UNL1       -0.2329
     13 N          14.6802   40.3637    8.8156 N.ar    1  UNL1       -0.1527
     14 N          11.4319   39.3004    8.1162 N.ar    1  UNL1       -0.2268
     15 C          16.4860   42.5311    7.6215 C.2     1  UNL1        0.2263
     16 N          15.0534   42.4714    7.6238 N.am    1  UNL1       -0.2679
     17 O          17.1548   41.6694    8.2557 O.2     1  UNL1       -0.2748
     18 H          14.5702   43.2928    7.3767 H       1  UNL1        0.1563
     19 C          17.1836   43.7040    6.9839 C.3     1  UNL1        0.0692
     20 C          18.1913   44.3251    7.9369 C.3     1  UNL1        0.0091
     21 C          16.1567   44.7528    6.6060 C.3     1  UNL1        0.0091
     22 C          17.9251   43.2689    5.7323 C.3     1  UNL1        0.0091
     23 C          13.7478   38.3030    9.7971 C.3     1  UNL1        0.1292
     24 C          13.5469   38.6867   11.2537 C.3     1  UNL1        0.0264
     25 C          15.8544   37.7460   11.3142 C.3     1  UNL1        0.0001
     26 C          14.8748   38.6879   11.9891 C.3     1  UNL1        0.0021
@<TRIPOS>BOND
     1    25    26    1
     2    26    24    1
     3    24    23    1
     4    23    12    1
     5     1    16    1
     6     1     2   ar
     7    19    15    1
     8    19    20    1
     9    19    21    1
    10    19    22    1
    11     3     4   ar
    12     5     6   ar
    13     7     9   ar
    14     8     7    1
    15    10    14   ar
    16    10     4   ar
    17    11    12   ar
    18    11     2   ar
    19    12    13   ar
    20    16    15   am
    21     1    13   ar
    22    15    17    2
    23     2     3   ar
    24     4     5   ar
    25     6     7   ar
    26     9    10   ar
    27    11    14   ar
    28    16    18    1
@<TRIPOS>MOLECULE
MolPort-002-628-419 9328254 PubChem-1635251 ZINC000009328254 ZINC09328254
 26 28 0 0 0
SMALL
GASTEIGER

@<TRIPOS>ATOM
      1 C          11.7594   40.8194    9.9447 C.ar    1  UNL1        0.1568
      2 C          12.2580   39.5395    9.7587 C.ar    1  UNL1        0.0689
      3 C          11.9228   38.2854   10.2593 C.ar    1  UNL1        0.0074
      4 C          12.7281   37.2044    9.8607 C.ar    1  UNL1        0.0179
      5 C          12.4465   35.9126   10.3104 C.ar    1  UNL1        0.0012
      6 C          13.2541   34.8432    9.9115 C.ar    1  UNL1       -0.0042
      7 C          14.3461   35.0591    9.0634 C.ar    1  UNL1       -0.0204
      8 C          15.1972   33.9145    8.6472 C.3     1  UNL1        0.0311
      9 C          14.6411   36.3477    8.6074 C.ar    1  UNL1        0.0149
     10 C          13.8434   37.4271    8.9951 C.ar    1  UNL1        0.0826
     11 C          13.3390   39.7130    8.9446 C.ar    1  UNL1        0.1621
     12 N          13.4993   41.0154    8.6658 N.ar    1  UNL1       -0.2329
     13 N          12.5420   41.7044    9.2790 N.ar    1  UNL1       -0.1527
     14 N          14.1376   38.6875    8.5557 N.ar    1  UNL1       -0.2268
     15 C           9.4415   41.8165   10.3281 C.2     1  UNL1        0.2263
     16 N          10.6658   41.2211   10.7783 N.am    1  UNL1       -0.2679
     17 O           9.3836   42.3564    9.1892 O.2     1  UNL1       -0.2748
     18 H          10.7636   41.0754   11.7470 H       1  UNL1        0.1563
     19 C           8.2723   41.9242   11.2715 C.3     1  UNL1        0.0692
     20 C           6.9707   41.5686   10.5721 C.3     1  UNL1        0.0091
     21 C           8.1765   43.3450   11.7906 C.3     1  UNL1        0.0091
     22 C           8.4470   40.9814   12.4489 C.3     1  UNL1        0.0091
     23 C          14.5406   41.6042    7.8387 C.3     1  UNL1        0.1292
     24 C          13.9273   42.2385    6.6015 C.3     1  UNL1        0.0264
     25 C          14.8630   44.0541    5.1728 C.3     1  UNL1        0.0001
     26 C          14.2808   43.7131    6.5318 C.3     1  UNL1        0.0021
@<TRIPOS>BOND
     1    25    26    1
     2    26    24    1
     3    24    23    1
     4    23    12    1
     5     1    16    1
     6     1     2   ar
     7    19    15    1
     8    19    20    1
     9    19    21    1
    10    19    22    1
    11     3     4   ar
    12     5     6   ar
    13     7     9   ar
    14     8     7    1
    15    10    14   ar
    16    10     4   ar
    17    11    12   ar
    18    11     2   ar
    19    12    13   ar
    20    16    15   am
    21     1    13   ar
    22    15    17    2
    23     2     3   ar
    24     4     5   ar
    25     6     7   ar
    26     9    10   ar
    27    11    14   ar
    28    16    18    1
