@<TRIPOS>MOLECULE
Molport-016-716-267 19496917 MCULE-7909949771 PubChem-92584239 ZINC000019496917
 30 32 0 0 0
SMALL
GASTEIGER

@<TRIPOS>ATOM
      1 C           9.1481   41.9687    8.1999 C.2     1  UNL1        0.2638
      2 N           9.8503   41.7911    9.4386 N.am    1  UNL1       -0.2599
      3 O           9.7331   41.7789    7.0991 O.2     1  UNL1       -0.2710
      4 H           9.3726   42.0462   10.2608 H       1  UNL1        0.1569
      5 C          13.4666   40.5659    9.5095 C.ar    1  UNL1        0.1137
      6 C          11.1787   41.2787    9.5952 C.ar    1  UNL1        0.1879
      7 N          12.8140   40.1367   10.6128 N.ar    1  UNL1       -0.1440
      8 N          11.5436   40.5338   10.6604 N.ar    1  UNL1       -0.1256
      9 S          12.4596   41.4729    8.5117 S.2     1  UNL1       -0.0346
     10 C          14.8912   40.2438    9.2061 C.3     1  UNL1        0.0718
     11 C          15.1474   38.7466    9.3083 C.3     1  UNL1        0.0791
     12 C          19.6484   38.5610    9.1900 C.3     1  UNL1        0.0001
     13 C          19.0615   37.8218   10.3791 C.3     1  UNL1        0.0028
     14 C          18.3163   38.7940   11.3017 C.3     1  UNL1        0.0174
     15 C          16.9256   39.1987   10.7764 C.3     1  UNL1        0.0721
     16 C          16.6915   37.0569    9.7937 C.3     1  UNL1        0.0721
     17 C          18.1701   36.6685    9.8995 C.3     1  UNL1        0.0174
     18 N          16.5580   38.4886    9.5490 N.3     1  UNL1       -0.2723
     19 C           7.7253   42.4661    8.2050 C.3     1  UNL1        0.2010
     20 C           7.3245   42.7712    6.7755 C.3     1  UNL1        0.0532
     21 C           7.5883   43.7523    9.0108 C.3     1  UNL1        0.0532
     22 O           6.8315   41.4697    8.7176 O.3     1  UNL1       -0.4739
     23 C           5.6198   41.7207    9.3823 C.ar    1  UNL1        0.1391
     24 C           5.5113   41.3728   10.7322 C.ar    1  UNL1        0.0400
     25 C           4.3236   41.6083   11.4302 C.ar    1  UNL1        0.0400
     26 C           3.2263   42.1977   10.7825 C.ar    1  UNL1        0.1389
     27 C           3.3334   42.5465    9.4329 C.ar    1  UNL1        0.0400
     28 C           4.5213   42.3104    8.7357 C.ar    1  UNL1        0.0400
     29 C           1.8859   42.2966   12.8588 C.3     1  UNL1        0.2525
     30 O           2.0256   42.4467   11.4526 O.3     1  UNL1       -0.4714
@<TRIPOS>BOND
     1    12    13    1
     2    13    14    1
     3    14    15    1
     4    15    18    1
     5    16    18    1
     6    16    17    1
     7    17    13    1
     8    11    18    1
     9    11    10    1
    10    10     5    1
    11     5     9   ar
    12     6     9   ar
    13     6     2    1
    14    19     1    1
    15    19    20    1
    16    19    21    1
    17    19    22    1
    18    23    22    1
    19    24    25   ar
    20    26    27   ar
    21    26    30    1
    22    28    23   ar
    23    29    30    1
    24     7     8   ar
    25     2     1   am
    26     5     7   ar
    27     6     8   ar
    28     1     3    2
    29    23    24   ar
    30    25    26   ar
    31    27    28   ar
    32     2     4    1
@<TRIPOS>MOLECULE
Molport-016-716-267 19496917 MCULE-7909949771 PubChem-92584239 ZINC000019496917
 30 32 0 0 0
SMALL
GASTEIGER

@<TRIPOS>ATOM
      1 C          11.9244   40.5386   10.3300 C.2     1  UNL1        0.2638
      2 N          11.5896   41.5164    9.3345 N.am    1  UNL1       -0.2599
      3 O          11.4022   40.5872   11.4766 O.2     1  UNL1       -0.2710
      4 H          12.0991   41.4860    8.4926 H       1  UNL1        0.1569
      5 C           8.7297   44.0471    9.3509 C.ar    1  UNL1        0.1137
      6 C          10.5862   42.5324    9.4466 C.ar    1  UNL1        0.1879
      7 N           9.6903   44.4330   10.2203 N.ar    1  UNL1       -0.1440
      8 N          10.7206   43.5908   10.2737 N.ar    1  UNL1       -0.1256
      9 S           9.1381   42.6076    8.5806 S.2     1  UNL1       -0.0346
     10 C           7.4828   44.8227    9.0888 C.3     1  UNL1        0.0718
     11 C           6.5338   44.0450    8.1876 C.3     1  UNL1        0.0791
     12 C           4.3210   41.8903   11.4689 C.3     1  UNL1        0.0001
     13 C           3.8402   41.5004   10.0826 C.3     1  UNL1        0.0028
     14 C           3.2379   42.7128    9.3622 C.3     1  UNL1        0.0174
     15 C           4.2944   43.6835    8.8005 C.3     1  UNL1        0.0721
     16 C           5.7463   41.8533    8.4133 C.3     1  UNL1        0.0721
     17 C           4.9821   40.8533    9.2876 C.3     1  UNL1        0.0174
     18 N           5.6630   43.1937    8.9821 N.3     1  UNL1       -0.2723
     19 C          12.9694   39.4926   10.0371 C.3     1  UNL1        0.2010
     20 C          12.3035   38.1317   10.0811 C.3     1  UNL1        0.0532
     21 C          14.0759   39.5028   11.0849 C.3     1  UNL1        0.0532
     22 O          13.5305   39.6744    8.7308 O.3     1  UNL1       -0.4739
     23 C          14.3603   40.7369    8.3365 C.ar    1  UNL1        0.1391
     24 C          13.8915   41.6298    7.3680 C.ar    1  UNL1        0.0400
     25 C          14.6854   42.7015    6.9504 C.ar    1  UNL1        0.0400
     26 C          15.9630   42.8929    7.5001 C.ar    1  UNL1        0.1389
     27 C          16.4330   42.0012    8.4688 C.ar    1  UNL1        0.0400
     28 C          15.6385   40.9298    8.8856 C.ar    1  UNL1        0.0400
     29 C          17.8250   43.8058    6.1520 C.3     1  UNL1        0.2525
     30 O          16.7807   43.9548    7.1042 O.3     1  UNL1       -0.4714
@<TRIPOS>BOND
     1    12    13    1
     2    13    14    1
     3    14    15    1
     4    15    18    1
     5    16    18    1
     6    16    17    1
     7    17    13    1
     8    11    18    1
     9    11    10    1
    10    10     5    1
    11     5     9   ar
    12     6     9   ar
    13     6     2    1
    14    19     1    1
    15    19    20    1
    16    19    21    1
    17    19    22    1
    18    23    22    1
    19    24    25   ar
    20    26    27   ar
    21    26    30    1
    22    28    23   ar
    23    29    30    1
    24     7     8   ar
    25     2     1   am
    26     5     7   ar
    27     6     8   ar
    28     1     3    2
    29    23    24   ar
    30    25    26   ar
    31    27    28   ar
    32     2     4    1
@<TRIPOS>MOLECULE
Molport-016-716-267 19496917 MCULE-7909949771 PubChem-92584239 ZINC000019496917
 30 32 0 0 0
SMALL
GASTEIGER

@<TRIPOS>ATOM
      1 C           8.8318   41.5069    8.1860 C.2     1  UNL1        0.2638
      2 N           9.4035   40.6084    9.1477 N.am    1  UNL1       -0.2599
      3 O           9.5227   41.9402    7.2243 O.2     1  UNL1       -0.2710
      4 H           8.8481   40.3803    9.9279 H       1  UNL1        0.1569
      5 C          13.0126   39.3683    9.0055 C.ar    1  UNL1        0.1137
      6 C          10.7038   40.0110    9.0828 C.ar    1  UNL1        0.1879
      7 N          12.1632   38.3338    8.8169 N.ar    1  UNL1       -0.1440
      8 N          10.8810   38.6912    8.8611 N.ar    1  UNL1       -0.1256
      9 S          12.1820   40.8148    9.2292 S.2     1  UNL1       -0.0346
     10 C          14.4987   39.2408    8.9836 C.3     1  UNL1        0.0718
     11 C          15.1401   40.1332   10.0371 C.3     1  UNL1        0.0791
     12 C          17.3286   43.9425    9.0336 C.3     1  UNL1        0.0001
     13 C          17.3224   42.9492    7.8854 C.3     1  UNL1        0.0028
     14 C          18.0678   41.6682    8.2791 C.3     1  UNL1        0.0174
     15 C          17.2474   40.7321    9.1871 C.3     1  UNL1        0.0721
     16 C          15.2661   41.4428    8.1021 C.3     1  UNL1        0.0721
     17 C          15.8831   42.6740    7.4299 C.3     1  UNL1        0.0174
     18 N          15.8808   41.2129    9.4047 N.3     1  UNL1       -0.2723
     19 C           7.4211   42.0061    8.3669 C.3     1  UNL1        0.2010
     20 C           6.6862   41.8376    7.0521 C.3     1  UNL1        0.0532
     21 C           7.3966   43.4867    8.7267 C.3     1  UNL1        0.0532
     22 O           6.7290   41.2477    9.3669 O.3     1  UNL1       -0.4739
     23 C           5.4395   41.5187    9.8536 C.ar    1  UNL1        0.1391
     24 C           5.1458   41.2059   11.1844 C.ar    1  UNL1        0.0400
     25 C           3.8755   41.4623   11.7077 C.ar    1  UNL1        0.0400
     26 C           2.8804   42.0377   10.9017 C.ar    1  UNL1        0.1389
     27 C           3.1726   42.3514    9.5710 C.ar    1  UNL1        0.0400
     28 C           4.4430   42.0945    9.0486 C.ar    1  UNL1        0.0400
     29 C           1.3392   42.5152   12.7764 C.3     1  UNL1        0.2525
     30 O           1.6010   42.3069   11.3952 O.3     1  UNL1       -0.4714
@<TRIPOS>BOND
     1    12    13    1
     2    13    14    1
     3    14    15    1
     4    15    18    1
     5    16    18    1
     6    16    17    1
     7    17    13    1
     8    11    18    1
     9    11    10    1
    10    10     5    1
    11     5     9   ar
    12     6     9   ar
    13     6     2    1
    14    19     1    1
    15    19    20    1
    16    19    21    1
    17    19    22    1
    18    23    22    1
    19    24    25   ar
    20    26    27   ar
    21    26    30    1
    22    28    23   ar
    23    29    30    1
    24     7     8   ar
    25     2     1   am
    26     5     7   ar
    27     6     8   ar
    28     1     3    2
    29    23    24   ar
    30    25    26   ar
    31    27    28   ar
    32     2     4    1
@<TRIPOS>MOLECULE
Molport-016-716-267 19496917 MCULE-7909949771 PubChem-92584239 ZINC000019496917
 30 32 0 0 0
SMALL
GASTEIGER

@<TRIPOS>ATOM
      1 C          10.2669   41.5877    7.5821 C.2     1  UNL1        0.2638
      2 N           9.2149   42.1999    6.8220 N.am    1  UNL1       -0.2599
      3 O          10.3537   41.7791    8.8254 O.2     1  UNL1       -0.2710
      4 H           9.2535   42.0938    5.8440 H       1  UNL1        0.1569
      5 C           6.1091   44.1503    7.8868 C.ar    1  UNL1        0.1137
      6 C           8.1140   42.9502    7.3480 C.ar    1  UNL1        0.1879
      7 N           7.0411   44.2003    8.8646 N.ar    1  UNL1       -0.1440
      8 N           8.1540   43.5327    8.5652 N.ar    1  UNL1       -0.1256
      9 S           6.6494   43.2588    6.5656 S.2     1  UNL1       -0.0346
     10 C           4.7836   44.8304    7.9635 C.3     1  UNL1        0.0718
     11 C           3.7246   43.9015    8.5408 C.3     1  UNL1        0.0791
     12 C           6.4107   41.6185   11.3479 C.3     1  UNL1        0.0001
     13 C           5.0768   40.9295   11.1217 C.3     1  UNL1        0.0028
     14 C           3.9265   41.8039   11.6355 C.3     1  UNL1        0.0174
     15 C           3.5669   42.9667   10.6909 C.3     1  UNL1        0.0721
     16 C           4.1623   41.6218    8.8350 C.3     1  UNL1        0.0721
     17 C           4.9157   40.5586    9.6414 C.3     1  UNL1        0.0174
     18 N           4.3330   42.9367    9.4427 N.3     1  UNL1       -0.2723
     19 C          11.3276   40.7766    6.8830 C.3     1  UNL1        0.2010
     20 C          10.6386   39.7445    6.0127 C.3     1  UNL1        0.0532
     21 C          12.2062   40.0315    7.8806 C.3     1  UNL1        0.0532
     22 O          12.1384   41.6041    6.0391 O.3     1  UNL1       -0.4739
     23 C          13.3362   42.2334    6.4162 C.ar    1  UNL1        0.1391
     24 C          13.6399   43.4821    5.8651 C.ar    1  UNL1        0.0400
     25 C          14.8204   44.1424    6.2164 C.ar    1  UNL1        0.0400
     26 C          15.7144   43.5581    7.1278 C.ar    1  UNL1        0.1389
     27 C          15.4120   42.3099    7.6801 C.ar    1  UNL1        0.0400
     28 C          14.2314   41.6504    7.3280 C.ar    1  UNL1        0.0400
     29 C          17.5534   43.9391    8.7374 C.3     1  UNL1        0.2525
     30 O          16.9024   44.1930    7.4999 O.3     1  UNL1       -0.4714
@<TRIPOS>BOND
     1    12    13    1
     2    13    14    1
     3    14    15    1
     4    15    18    1
     5    16    18    1
     6    16    17    1
     7    17    13    1
     8    11    18    1
     9    11    10    1
    10    10     5    1
    11     5     9   ar
    12     6     9   ar
    13     6     2    1
    14    19     1    1
    15    19    20    1
    16    19    21    1
    17    19    22    1
    18    23    22    1
    19    24    25   ar
    20    26    27   ar
    21    26    30    1
    22    28    23   ar
    23    29    30    1
    24     7     8   ar
    25     2     1   am
    26     5     7   ar
    27     6     8   ar
    28     1     3    2
    29    23    24   ar
    30    25    26   ar
    31    27    28   ar
    32     2     4    1
@<TRIPOS>MOLECULE
Molport-016-716-267 19496917 MCULE-7909949771 PubChem-92584239 ZINC000019496917
 30 32 0 0 0
SMALL
GASTEIGER

@<TRIPOS>ATOM
      1 C          11.0151   41.0753    9.1442 C.2     1  UNL1        0.2638
      2 N           9.8605   40.8894    8.3126 N.am    1  UNL1       -0.2599
      3 O          11.2058   42.1702    9.7398 O.2     1  UNL1       -0.2710
      4 H           9.8141   40.0515    7.7976 H       1  UNL1        0.1569
      5 C           6.9675   43.3819    8.2799 C.ar    1  UNL1        0.1137
      6 C           8.7692   41.8042    8.1588 C.ar    1  UNL1        0.1879
      7 N           7.1467   42.8692    7.0420 N.ar    1  UNL1       -0.1440
      8 N           8.1482   41.9938    6.9752 N.ar    1  UNL1       -0.1256
      9 S           8.0702   42.7410    9.3779 S.2     1  UNL1       -0.0346
     10 C           5.9025   44.3668    8.6276 C.3     1  UNL1        0.0718
     11 C           4.5199   43.8100    8.3176 C.3     1  UNL1        0.0791
     12 C           2.2983   42.3406   11.9524 C.3     1  UNL1        0.0001
     13 C           3.2979   41.3265   11.4258 C.3     1  UNL1        0.0028
     14 C           2.9154   40.8806   10.0093 C.3     1  UNL1        0.0174
     15 C           3.2772   41.9089    8.9206 C.3     1  UNL1        0.0721
     16 C           5.1648   42.5653   10.1911 C.3     1  UNL1        0.0721
     17 C           4.7204   41.8977   11.4969 C.3     1  UNL1        0.0174
     18 N           4.0080   43.0611    9.4540 N.3     1  UNL1       -0.2723
     19 C          12.0541   39.9881    9.2448 C.3     1  UNL1        0.2010
     20 C          11.3403   38.6513    9.2747 C.3     1  UNL1        0.0532
     21 C          12.8652   40.1106   10.5291 C.3     1  UNL1        0.0532
     22 O          12.9291   40.0029    8.1098 O.3     1  UNL1       -0.4739
     23 C          13.7996   41.0485    7.7605 C.ar    1  UNL1        0.1391
     24 C          15.0405   41.1294    8.3996 C.ar    1  UNL1        0.0400
     25 C          15.9363   42.1530    8.0787 C.ar    1  UNL1        0.0400
     26 C          15.5990   43.1114    7.1098 C.ar    1  UNL1        0.1389
     27 C          14.3587   43.0316    6.4695 C.ar    1  UNL1        0.0400
     28 C          13.4637   42.0078    6.7912 C.ar    1  UNL1        0.0400
     29 C          17.5436   43.9741    5.8480 C.3     1  UNL1        0.2525
     30 O          16.4727   44.1465    6.7662 O.3     1  UNL1       -0.4714
@<TRIPOS>BOND
     1    12    13    1
     2    13    14    1
     3    14    15    1
     4    15    18    1
     5    16    18    1
     6    16    17    1
     7    17    13    1
     8    11    18    1
     9    11    10    1
    10    10     5    1
    11     5     9   ar
    12     6     9   ar
    13     6     2    1
    14    19     1    1
    15    19    20    1
    16    19    21    1
    17    19    22    1
    18    23    22    1
    19    24    25   ar
    20    26    27   ar
    21    26    30    1
    22    28    23   ar
    23    29    30    1
    24     7     8   ar
    25     2     1   am
    26     5     7   ar
    27     6     8   ar
    28     1     3    2
    29    23    24   ar
    30    25    26   ar
    31    27    28   ar
    32     2     4    1
@<TRIPOS>MOLECULE
Molport-016-716-267 19496917 MCULE-7909949771 PubChem-92584239 ZINC000019496917
 30 32 0 0 0
SMALL
GASTEIGER

@<TRIPOS>ATOM
      1 C          13.2046   39.2130   10.0160 C.2     1  UNL1        0.2638
      2 N          12.6271   40.2347   10.8416 N.am    1  UNL1       -0.2599
      3 O          12.5043   38.6113    9.1573 O.2     1  UNL1       -0.2710
      4 H          13.1946   40.6009   11.5579 H       1  UNL1        0.1569
      5 C           9.1947   41.7696   10.1731 C.ar    1  UNL1        0.1137
      6 C          11.3051   40.7737   10.7247 C.ar    1  UNL1        0.1879
      7 N           9.2783   41.3743   11.4631 N.ar    1  UNL1       -0.1440
      8 N          10.4503   40.8202   11.7686 N.ar    1  UNL1       -0.1256
      9 S          10.6196   41.4492    9.3369 S.2     1  UNL1       -0.0346
     10 C           7.9981   42.4355    9.5817 C.3     1  UNL1        0.0718
     11 C           7.0945   41.4239    8.8906 C.3     1  UNL1        0.0791
     12 C           2.6336   41.2114    9.4925 C.3     1  UNL1        0.0001
     13 C           3.2684   42.3852   10.2166 C.3     1  UNL1        0.0028
     14 C           4.2526   41.8899   11.2831 C.3     1  UNL1        0.0174
     15 C           5.6031   41.4236   10.7065 C.3     1  UNL1        0.0721
     16 C           5.4159   43.0505    8.9960 C.3     1  UNL1        0.0721
     17 C           3.9257   43.3376    9.2088 C.3     1  UNL1        0.0174
     18 N           5.7064   41.6462    9.2623 N.3     1  UNL1       -0.2723
     19 C          14.6365   38.7928   10.2283 C.3     1  UNL1        0.2010
     20 C          15.0201   37.8370    9.1162 C.3     1  UNL1        0.0532
     21 C          14.8106   38.0590   11.5525 C.3     1  UNL1        0.0532
     22 O          15.5195   39.9205   10.1736 O.3     1  UNL1       -0.4739
     23 C          15.5723   40.8697    9.1396 C.ar    1  UNL1        0.1391
     24 C          14.4341   41.0669    8.3519 C.ar    1  UNL1        0.0400
     25 C          14.4449   42.0038    7.3149 C.ar    1  UNL1        0.0400
     26 C          15.6001   42.7578    7.0536 C.ar    1  UNL1        0.1389
     27 C          16.7388   42.5620    7.8407 C.ar    1  UNL1        0.0400
     28 C          16.7271   41.6248    8.8771 C.ar    1  UNL1        0.0400
     29 C          14.5352   44.5303    5.6965 C.3     1  UNL1        0.2525
     30 O          15.6427   43.7025    6.0248 O.3     1  UNL1       -0.4714
@<TRIPOS>BOND
     1    12    13    1
     2    13    14    1
     3    14    15    1
     4    15    18    1
     5    16    18    1
     6    16    17    1
     7    17    13    1
     8    11    18    1
     9    11    10    1
    10    10     5    1
    11     5     9   ar
    12     6     9   ar
    13     6     2    1
    14    19     1    1
    15    19    20    1
    16    19    21    1
    17    19    22    1
    18    23    22    1
    19    24    25   ar
    20    26    27   ar
    21    26    30    1
    22    28    23   ar
    23    29    30    1
    24     7     8   ar
    25     2     1   am
    26     5     7   ar
    27     6     8   ar
    28     1     3    2
    29    23    24   ar
    30    25    26   ar
    31    27    28   ar
    32     2     4    1
@<TRIPOS>MOLECULE
Molport-016-716-267 19496917 MCULE-7909949771 PubChem-92584239 ZINC000019496917
 30 32 0 0 0
SMALL
GASTEIGER

@<TRIPOS>ATOM
      1 C           9.9399   41.3292    8.2519 C.2     1  UNL1        0.2638
      2 N           9.4566   42.2048    7.2229 N.am    1  UNL1       -0.2599
      3 O           9.2630   41.1349    9.2978 O.2     1  UNL1       -0.2710
      4 H          10.0693   42.3933    6.4758 H       1  UNL1        0.1569
      5 C           6.0983   44.0086    7.4510 C.ar    1  UNL1        0.1137
      6 C           8.1693   42.8313    7.1773 C.ar    1  UNL1        0.1879
      7 N           6.1599   43.2946    6.3048 N.ar    1  UNL1       -0.1440
      8 N           7.3108   42.6419    6.1528 N.ar    1  UNL1       -0.1256
      9 S           7.5076   43.8439    8.3560 S.2     1  UNL1       -0.0346
     10 C           4.9132   44.8122    7.8693 C.3     1  UNL1        0.0718
     11 C           3.8411   43.9254    8.4871 C.3     1  UNL1        0.0791
     12 C           6.4567   41.7291   11.4269 C.3     1  UNL1        0.0001
     13 C           5.1742   40.9811   11.1093 C.3     1  UNL1        0.0028
     14 C           3.9535   41.7916   11.5615 C.3     1  UNL1        0.0174
     15 C           3.5968   42.9507   10.6113 C.3     1  UNL1        0.0721
     16 C           4.3698   41.6648    8.7791 C.3     1  UNL1        0.0721
     17 C           5.1228   40.6261    9.6173 C.3     1  UNL1        0.0174
     18 N           4.4389   42.9767    9.4128 N.3     1  UNL1       -0.2723
     19 C          11.3033   40.6990    8.1258 C.3     1  UNL1        0.2010
     20 C          11.8398   41.0025    6.7411 C.3     1  UNL1        0.0532
     21 C          11.2321   39.1841    8.2749 C.3     1  UNL1        0.0532
     22 O          12.2151   41.2434    9.0883 O.3     1  UNL1       -0.4739
     23 C          13.2377   40.5344    9.7400 C.ar    1  UNL1        0.1391
     24 C          14.5170   40.5329    9.1758 C.ar    1  UNL1        0.0400
     25 C          15.5623   39.8417    9.7945 C.ar    1  UNL1        0.0400
     26 C          15.3383   39.1414   10.9906 C.ar    1  UNL1        0.1389
     27 C          14.0598   39.1423   11.5561 C.ar    1  UNL1        0.0400
     28 C          13.0152   39.8335   10.9366 C.ar    1  UNL1        0.0400
     29 C          17.1603   37.4687   10.9727 C.3     1  UNL1        0.2525
     30 O          16.3624   38.4413   11.6339 O.3     1  UNL1       -0.4714
@<TRIPOS>BOND
     1    12    13    1
     2    13    14    1
     3    14    15    1
     4    15    18    1
     5    16    18    1
     6    16    17    1
     7    17    13    1
     8    11    18    1
     9    11    10    1
    10    10     5    1
    11     5     9   ar
    12     6     9   ar
    13     6     2    1
    14    19     1    1
    15    19    20    1
    16    19    21    1
    17    19    22    1
    18    23    22    1
    19    24    25   ar
    20    26    27   ar
    21    26    30    1
    22    28    23   ar
    23    29    30    1
    24     7     8   ar
    25     2     1   am
    26     5     7   ar
    27     6     8   ar
    28     1     3    2
    29    23    24   ar
    30    25    26   ar
    31    27    28   ar
    32     2     4    1
@<TRIPOS>MOLECULE
Molport-016-716-267 19496917 MCULE-7909949771 PubChem-92584239 ZINC000019496917
 30 32 0 0 0
SMALL
GASTEIGER

@<TRIPOS>ATOM
      1 C           9.8453   41.1183    8.9854 C.2     1  UNL1        0.2638
      2 N          10.1962   40.3804   10.1651 N.am    1  UNL1       -0.2599
      3 O          10.6611   41.2242    8.0298 O.2     1  UNL1       -0.2710
      4 H           9.5595   40.4128   10.9153 H       1  UNL1        0.1569
      5 C          13.1755   38.0160   10.5066 C.ar    1  UNL1        0.1137
      6 C          11.3827   39.6014   10.3572 C.ar    1  UNL1        0.1879
      7 N          13.4434   39.1860   11.1284 N.ar    1  UNL1       -0.1440
      8 N          12.4477   40.0665   11.0442 N.ar    1  UNL1       -0.1256
      9 S          11.6406   38.0223    9.8165 S.2     1  UNL1       -0.0346
     10 C          14.1150   36.8579   10.4699 C.3     1  UNL1        0.0718
     11 C          13.7392   35.8833    9.3624 C.3     1  UNL1        0.0791
     12 C          16.7921   35.5058    6.0694 C.3     1  UNL1        0.0001
     13 C          17.2458   34.8614    7.3671 C.3     1  UNL1        0.0028
     14 C          17.3760   35.9152    8.4734 C.3     1  UNL1        0.0174
     15 C          16.0252   36.3459    9.0765 C.3     1  UNL1        0.0721
     16 C          15.1847   34.1623    8.7115 C.3     1  UNL1        0.0721
     17 C          16.2955   33.7200    7.7530 C.3     1  UNL1        0.0174
     18 N          14.8978   35.5817    8.5372 N.3     1  UNL1       -0.2723
     19 C           8.5262   41.8442    8.9154 C.3     1  UNL1        0.2010
     20 C           8.3506   42.3737    7.5061 C.3     1  UNL1        0.0532
     21 C           8.4948   43.0344    9.8665 C.3     1  UNL1        0.0532
     22 O           7.4344   40.9606    9.2008 O.3     1  UNL1       -0.4739
     23 C           6.1570   41.3510    9.6353 C.ar    1  UNL1        0.1391
     24 C           5.8619   41.2784   11.0001 C.ar    1  UNL1        0.0400
     25 C           4.6035   41.6600   11.4732 C.ar    1  UNL1        0.0400
     26 C           3.6217   42.1212   10.5819 C.ar    1  UNL1        0.1389
     27 C           3.9153   42.1948    9.2170 C.ar    1  UNL1        0.0400
     28 C           5.1738   41.8127    8.7449 C.ar    1  UNL1        0.0400
     29 C           1.8966   42.2738   12.3478 C.3     1  UNL1        0.2525
     30 O           2.3544   42.5107   11.0234 O.3     1  UNL1       -0.4714
@<TRIPOS>BOND
     1    12    13    1
     2    13    14    1
     3    14    15    1
     4    15    18    1
     5    16    18    1
     6    16    17    1
     7    17    13    1
     8    11    18    1
     9    11    10    1
    10    10     5    1
    11     5     9   ar
    12     6     9   ar
    13     6     2    1
    14    19     1    1
    15    19    20    1
    16    19    21    1
    17    19    22    1
    18    23    22    1
    19    24    25   ar
    20    26    27   ar
    21    26    30    1
    22    28    23   ar
    23    29    30    1
    24     7     8   ar
    25     2     1   am
    26     5     7   ar
    27     6     8   ar
    28     1     3    2
    29    23    24   ar
    30    25    26   ar
    31    27    28   ar
    32     2     4    1
@<TRIPOS>MOLECULE
Molport-016-716-267 19496917 MCULE-7909949771 PubChem-92584239 ZINC000019496917
 30 32 0 0 0
SMALL
GASTEIGER

@<TRIPOS>ATOM
      1 C           9.3942   41.0785    9.4639 C.2     1  UNL1        0.2638
      2 N          10.1018   40.2375   10.3865 N.am    1  UNL1       -0.2599
      3 O           9.8121   41.2282    8.2837 O.2     1  UNL1       -0.2710
      4 H           9.7846   40.2350   11.3186 H       1  UNL1        0.1569
      5 C          13.3165   38.2917    9.7062 C.ar    1  UNL1        0.1137
      6 C          11.2246   39.4015   10.0833 C.ar    1  UNL1        0.1879
      7 N          12.2512   37.5911    9.2572 N.ar    1  UNL1       -0.1440
      8 N          11.0895   38.2075    9.4679 N.ar    1  UNL1       -0.1256
      9 S          12.8469   39.7547   10.3926 S.2     1  UNL1       -0.0346
     10 C          14.7300   37.8334    9.5758 C.3     1  UNL1        0.0718
     11 C          15.5078   38.0859   10.8598 C.3     1  UNL1        0.0791
     12 C          19.5561   36.1557   11.2994 C.3     1  UNL1        0.0001
     13 C          19.4463   37.0114   10.0500 C.3     1  UNL1        0.0028
     14 C          18.3797   36.4466    9.1040 C.3     1  UNL1        0.0174
     15 C          16.9373   36.7697    9.5383 C.3     1  UNL1        0.0721
     16 C          17.6870   38.8273   10.4396 C.3     1  UNL1        0.0721
     17 C          19.1781   38.4736   10.4305 C.3     1  UNL1        0.0174
     18 N          16.8845   37.6409   10.7149 N.3     1  UNL1       -0.2723
     19 C           8.1892   41.8571    9.9259 C.3     1  UNL1        0.2010
     20 C           8.2424   43.2333    9.2929 C.3     1  UNL1        0.0532
     21 C           8.1919   42.0409   11.4387 C.3     1  UNL1        0.0532
     22 O           6.9733   41.2209    9.5122 O.3     1  UNL1       -0.4739
     23 C           5.6852   41.5369    9.9749 C.ar    1  UNL1        0.1391
     24 C           5.1772   40.8370   11.0736 C.ar    1  UNL1        0.0400
     25 C           3.9010   41.1231   11.5662 C.ar    1  UNL1        0.0400
     26 C           3.1153   42.1178   10.9624 C.ar    1  UNL1        0.1389
     27 C           3.6220   42.8187    9.8641 C.ar    1  UNL1        0.0400
     28 C           4.8981   42.5317    9.3721 C.ar    1  UNL1        0.0400
     29 C           1.5011   42.4160   12.8126 C.3     1  UNL1        0.2525
     30 O           1.8360   42.4278   11.4315 O.3     1  UNL1       -0.4714
@<TRIPOS>BOND
     1    12    13    1
     2    13    14    1
     3    14    15    1
     4    15    18    1
     5    16    18    1
     6    16    17    1
     7    17    13    1
     8    11    18    1
     9    11    10    1
    10    10     5    1
    11     5     9   ar
    12     6     9   ar
    13     6     2    1
    14    19     1    1
    15    19    20    1
    16    19    21    1
    17    19    22    1
    18    23    22    1
    19    24    25   ar
    20    26    27   ar
    21    26    30    1
    22    28    23   ar
    23    29    30    1
    24     7     8   ar
    25     2     1   am
    26     5     7   ar
    27     6     8   ar
    28     1     3    2
    29    23    24   ar
    30    25    26   ar
    31    27    28   ar
    32     2     4    1
@<TRIPOS>MOLECULE
Molport-016-716-267 19496917 MCULE-7909949771 PubChem-92584239 ZINC000019496917
 30 32 0 0 0
SMALL
GASTEIGER

@<TRIPOS>ATOM
      1 C          12.3796   41.2670    9.2729 C.2     1  UNL1        0.2638
      2 N          11.0698   41.2662    9.8589 N.am    1  UNL1       -0.2599
      3 O          12.7749   42.2500    8.5893 O.2     1  UNL1       -0.2710
      4 H          10.7803   40.4345   10.2990 H       1  UNL1        0.1569
      5 C           8.5308   44.0974    9.5101 C.ar    1  UNL1        0.1137
      6 C          10.1425   42.3579    9.8658 C.ar    1  UNL1        0.1879
      7 N           9.0906   44.1307   10.7401 N.ar    1  UNL1       -0.1440
      8 N           9.9849   43.1637   10.9374 N.ar    1  UNL1       -0.1256
      9 S           9.1507   42.8356    8.5850 S.2     1  UNL1       -0.0346
     10 C           7.5160   45.0795    9.0297 C.3     1  UNL1        0.0718
     11 C           6.4681   44.4015    8.1581 C.3     1  UNL1        0.0791
     12 C           4.7583   41.7206   11.3513 C.3     1  UNL1        0.0001
     13 C           4.1460   41.4701    9.9848 C.3     1  UNL1        0.0028
     14 C           3.4020   42.7173    9.4926 C.3     1  UNL1        0.0174
     15 C           4.3346   43.8180    8.9517 C.3     1  UNL1        0.0721
     16 C           5.8301   42.1504    8.1833 C.3     1  UNL1        0.0721
     17 C           5.2243   41.0026    8.9981 C.3     1  UNL1        0.0174
     18 N           5.7394   43.4034    8.9243 N.3     1  UNL1       -0.2723
     19 C          13.2632   40.0527    9.4015 C.3     1  UNL1        0.2010
     20 C          13.2054   39.5742   10.8386 C.3     1  UNL1        0.0532
     21 C          14.7154   40.3846    9.0802 C.3     1  UNL1        0.0532
     22 O          12.8057   38.9890    8.5569 O.3     1  UNL1       -0.4739
     23 C          11.6316   39.0028    7.7859 C.ar    1  UNL1        0.1391
     24 C          10.5240   38.2791    8.2383 C.ar    1  UNL1        0.0400
     25 C           9.3364   38.2693    7.5017 C.ar    1  UNL1        0.0400
     26 C           9.2431   38.9873    6.2988 C.ar    1  UNL1        0.1389
     27 C          10.3495   39.7117    5.8454 C.ar    1  UNL1        0.0400
     28 C          11.5366   39.7207    6.5825 C.ar    1  UNL1        0.0400
     29 C           6.8106   39.3775    6.0783 C.3     1  UNL1        0.2525
     30 O           8.0698   38.9981    5.5397 O.3     1  UNL1       -0.4714
@<TRIPOS>BOND
     1    12    13    1
     2    13    14    1
     3    14    15    1
     4    15    18    1
     5    16    18    1
     6    16    17    1
     7    17    13    1
     8    11    18    1
     9    11    10    1
    10    10     5    1
    11     5     9   ar
    12     6     9   ar
    13     6     2    1
    14    19     1    1
    15    19    20    1
    16    19    21    1
    17    19    22    1
    18    23    22    1
    19    24    25   ar
    20    26    27   ar
    21    26    30    1
    22    28    23   ar
    23    29    30    1
    24     7     8   ar
    25     2     1   am
    26     5     7   ar
    27     6     8   ar
    28     1     3    2
    29    23    24   ar
    30    25    26   ar
    31    27    28   ar
    32     2     4    1
