@<TRIPOS>MOLECULE
MolPort-016-723-708 19658201 MCULE-8374060511 PubChem-46980742 ZINC000019658201 ZINC19658201
 27 29 0 0 0
SMALL
GASTEIGER

@<TRIPOS>ATOM
      1 C          11.1044   42.3335    9.5806 C.ar    1  UNL1        0.1878
      2 C           9.0260   42.3411   10.7763 C.ar    1  UNL1        0.1127
      3 N          10.7425   43.5611   10.0109 N.ar    1  UNL1       -0.1256
      4 N           9.5888   43.5650   10.6764 N.ar    1  UNL1       -0.1440
      5 S           9.9702   41.1646   10.0273 S.2     1  UNL1       -0.0347
      6 C          13.3328   41.1487    9.1748 C.2     1  UNL1        0.2321
      7 O          13.2219   40.3865   10.1710 O.2     1  UNL1       -0.2744
      8 N          12.3164   42.1048    8.8523 N.am    1  UNL1       -0.2625
      9 H          12.4653   42.6588    8.0522 H       1  UNL1        0.1568
     10 C          14.5600   41.0776    8.3336 C.3     1  UNL1        0.1158
     11 C          16.7361   43.3759    7.9663 C.3     1  UNL1        0.0553
     12 C          15.5103   43.1661    7.1478 C.ar    1  UNL1        0.0971
     13 C          14.5627   42.1815    7.3265 C.ar    1  UNL1        0.0366
     14 C          13.6607   42.4028    6.3094 C.ar    1  UNL1        0.1509
     15 C          12.4343   41.6115    6.0167 C.3     1  UNL1        0.0750
     16 O          14.0592   43.4434    5.6142 O.2     1  UNL1       -0.3584
     17 N          15.1711   43.9293    6.0908 N.ar    1  UNL1       -0.0821
     18 C           7.7492   42.0783   11.5005 C.3     1  UNL1        0.0592
     19 C           6.6997   41.4986   10.5550 C.3     1  UNL1        0.0334
     20 C           6.5429   42.2467    9.2607 C.ar    1  UNL1       -0.0188
     21 C           7.2433   41.7888    8.1403 C.ar    1  UNL1       -0.0041
     22 C           7.1345   42.4560    6.9169 C.ar    1  UNL1        0.0028
     23 C           6.3241   43.5895    6.8073 C.ar    1  UNL1        0.0369
     24 C           5.6197   44.0632    7.9182 C.ar    1  UNL1        0.1384
     25 C           5.7348   43.3890    9.1444 C.ar    1  UNL1        0.0326
     26 C           3.3966   45.1382    7.7831 C.3     1  UNL1        0.2525
     27 O           4.8167   45.1985    7.7792 O.3     1  UNL1       -0.4714
@<TRIPOS>BOND
     1    11    12    1
     2    12    13   ar
     3    14    16   ar
     4    15    14    1
     5    10    13    1
     6    10     6    1
     7     6     8   am
     8     1     5   ar
     9     2     5   ar
    10    18     2    1
    11    18    19    1
    12    19    20    1
    13    21    22   ar
    14    23    24   ar
    15    24    27    1
    16    25    20   ar
    17    26    27    1
    18    16    17   ar
    19     8     1    1
    20     3     4   ar
    21    12    17   ar
    22    13    14   ar
    23     6     7    2
    24     1     3   ar
    25     2     4   ar
    26    20    21   ar
    27    22    23   ar
    28    24    25   ar
    29     8     9    1
@<TRIPOS>MOLECULE
MolPort-016-723-708 19658201 MCULE-8374060511 PubChem-46980742 ZINC000019658201 ZINC19658201
 27 29 0 0 0
SMALL
GASTEIGER

@<TRIPOS>ATOM
      1 C          11.4598   42.2083    9.3797 C.ar    1  UNL1        0.1878
      2 C           9.3519   42.5291   10.4767 C.ar    1  UNL1        0.1127
      3 N          11.2497   43.4849    9.7661 N.ar    1  UNL1       -0.1256
      4 N          10.0796   43.6628   10.3768 N.ar    1  UNL1       -0.1440
      5 S          10.1590   41.2158    9.7981 S.2     1  UNL1       -0.0347
      6 C          13.3413   42.5128    7.6763 C.2     1  UNL1        0.2321
      7 O          12.9184   43.6235    7.2600 O.2     1  UNL1       -0.2744
      8 N          12.6599   41.7983    8.7138 N.am    1  UNL1       -0.2625
      9 H          13.0548   40.9421    8.9968 H       1  UNL1        0.1568
     10 C          14.5556   41.9142    7.0553 C.3     1  UNL1        0.1158
     11 C          14.9365   44.3890    5.0847 C.3     1  UNL1        0.0553
     12 C          15.8334   43.9915    6.2047 C.ar    1  UNL1        0.0971
     13 C          15.6725   42.9068    7.0395 C.ar    1  UNL1        0.0366
     14 C          16.7376   42.9977    7.9080 C.ar    1  UNL1        0.1509
     15 C          17.0471   42.0809    9.0391 C.3     1  UNL1        0.0750
     16 O          17.4567   44.0472    7.5818 O.2     1  UNL1       -0.3584
     17 N          16.9414   44.6707    6.5593 N.ar    1  UNL1       -0.0821
     18 C           8.0211   42.4609   11.1460 C.3     1  UNL1        0.0592
     19 C           7.1539   41.3726   10.5175 C.3     1  UNL1        0.0334
     20 C           5.6786   41.6599   10.5367 C.ar    1  UNL1       -0.0188
     21 C           4.8814   40.9778   11.4612 C.ar    1  UNL1       -0.0041
     22 C           3.5034   41.2067   11.5116 C.ar    1  UNL1        0.0028
     23 C           2.9128   42.1200   10.6338 C.ar    1  UNL1        0.0369
     24 C           3.6943   42.8080    9.7007 C.ar    1  UNL1        0.1384
     25 C           5.0776   42.5721    9.6546 C.ar    1  UNL1        0.0326
     26 C           3.8088   44.6590    8.0646 C.3     1  UNL1        0.2525
     27 O           3.0769   43.7156    8.8357 O.3     1  UNL1       -0.4714
@<TRIPOS>BOND
     1    11    12    1
     2    12    13   ar
     3    14    16   ar
     4    15    14    1
     5    10    13    1
     6    10     6    1
     7     6     8   am
     8     1     5   ar
     9     2     5   ar
    10    18     2    1
    11    18    19    1
    12    19    20    1
    13    21    22   ar
    14    23    24   ar
    15    24    27    1
    16    25    20   ar
    17    26    27    1
    18    16    17   ar
    19     8     1    1
    20     3     4   ar
    21    12    17   ar
    22    13    14   ar
    23     6     7    2
    24     1     3   ar
    25     2     4   ar
    26    20    21   ar
    27    22    23   ar
    28    24    25   ar
    29     8     9    1
@<TRIPOS>MOLECULE
MolPort-016-723-708 19658201 MCULE-8374060511 PubChem-46980742 ZINC000019658201 ZINC19658201
 27 29 0 0 0
SMALL
GASTEIGER

@<TRIPOS>ATOM
      1 C          11.0447   42.2952    9.8080 C.ar    1  UNL1        0.1878
      2 C           9.1504   42.5523   11.2554 C.ar    1  UNL1        0.1127
      3 N          10.7149   43.5858   10.0288 N.ar    1  UNL1       -0.1256
      4 N           9.6637   43.7286   10.8340 N.ar    1  UNL1       -0.1440
      5 S          10.0118   41.2451   10.6343 S.2     1  UNL1       -0.0347
      6 C          13.1484   40.9394    9.2878 C.2     1  UNL1        0.2321
      7 O          13.1161   40.2900   10.3661 O.2     1  UNL1       -0.2744
      8 N          12.1507   41.9194    8.9789 N.am    1  UNL1       -0.2625
      9 H          12.2330   42.3795    8.1125 H       1  UNL1        0.1568
     10 C          14.2641   40.7078    8.3287 C.3     1  UNL1        0.1158
     11 C          16.6674   42.7992    8.2707 C.3     1  UNL1        0.0553
     12 C          15.4727   42.7851    7.3823 C.ar    1  UNL1        0.0971
     13 C          14.4267   41.8888    7.4277 C.ar    1  UNL1        0.0366
     14 C          13.6060   42.2866    6.3957 C.ar    1  UNL1        0.1509
     15 C          12.3268   41.6507    5.9773 C.3     1  UNL1        0.0750
     16 O          14.1391   43.3381    5.8169 O.2     1  UNL1       -0.3584
     17 N          15.2654   43.6670    6.3853 N.ar    1  UNL1       -0.0821
     18 C           7.9920   42.4462   12.1884 C.3     1  UNL1        0.0592
     19 C           7.1637   41.2001   11.8839 C.3     1  UNL1        0.0334
     20 C           6.0034   41.4318   10.9568 C.ar    1  UNL1       -0.0188
     21 C           6.2117   41.2821    9.5821 C.ar    1  UNL1       -0.0041
     22 C           5.1646   41.4940    8.6809 C.ar    1  UNL1        0.0028
     23 C           3.9000   41.8601    9.1504 C.ar    1  UNL1        0.0369
     24 C           3.6750   42.0178   10.5213 C.ar    1  UNL1        0.1384
     25 C           4.7317   41.8047   11.4209 C.ar    1  UNL1        0.0326
     26 C           1.9579   42.1646   12.2950 C.3     1  UNL1        0.2525
     27 O           2.4004   42.3841   10.9622 O.3     1  UNL1       -0.4714
@<TRIPOS>BOND
     1    11    12    1
     2    12    13   ar
     3    14    16   ar
     4    15    14    1
     5    10    13    1
     6    10     6    1
     7     6     8   am
     8     1     5   ar
     9     2     5   ar
    10    18     2    1
    11    18    19    1
    12    19    20    1
    13    21    22   ar
    14    23    24   ar
    15    24    27    1
    16    25    20   ar
    17    26    27    1
    18    16    17   ar
    19     8     1    1
    20     3     4   ar
    21    12    17   ar
    22    13    14   ar
    23     6     7    2
    24     1     3   ar
    25     2     4   ar
    26    20    21   ar
    27    22    23   ar
    28    24    25   ar
    29     8     9    1
@<TRIPOS>MOLECULE
MolPort-016-723-708 19658201 MCULE-8374060511 PubChem-46980742 ZINC000019658201 ZINC19658201
 27 29 0 0 0
SMALL
GASTEIGER

@<TRIPOS>ATOM
      1 C          11.0805   42.4664    9.4511 C.ar    1  UNL1        0.1878
      2 C           9.0492   42.3891   10.7229 C.ar    1  UNL1        0.1127
      3 N          10.7347   43.6619    9.9748 N.ar    1  UNL1       -0.1256
      4 N           9.6073   43.6186   10.6826 N.ar    1  UNL1       -0.1440
      5 S           9.9647   41.2673    9.8626 S.2     1  UNL1       -0.0347
      6 C          13.3269   41.3660    8.9247 C.2     1  UNL1        0.2321
      7 O          13.2896   40.5879    9.9140 O.2     1  UNL1       -0.2744
      8 N          12.2640   42.2897    8.6637 N.am    1  UNL1       -0.2625
      9 H          12.3556   42.8586    7.8655 H       1  UNL1        0.1568
     10 C          14.5147   41.3488    8.0262 C.3     1  UNL1        0.1158
     11 C          16.5610   43.7801    7.7925 C.3     1  UNL1        0.0553
     12 C          15.3539   43.5435    6.9536 C.ar    1  UNL1        0.0971
     13 C          14.4618   42.5000    7.0749 C.ar    1  UNL1        0.0366
     14 C          13.5551   42.7213    6.0621 C.ar    1  UNL1        0.1509
     15 C          12.3768   41.8787    5.7197 C.3     1  UNL1        0.0750
     16 O          13.8989   43.8159    5.4228 O.2     1  UNL1       -0.3584
     17 N          14.9789   44.3385    5.9327 N.ar    1  UNL1       -0.0821
     18 C           7.8012   42.0754   11.4762 C.3     1  UNL1        0.0592
     19 C           6.7447   41.4784   10.5494 C.3     1  UNL1        0.0334
     20 C           6.7363   42.0514    9.1598 C.ar    1  UNL1       -0.0188
     21 C           6.3930   43.3974    8.9988 C.ar    1  UNL1       -0.0041
     22 C           6.3646   43.9726    7.7251 C.ar    1  UNL1        0.0028
     23 C           6.6780   43.2021    6.6019 C.ar    1  UNL1        0.0369
     24 C           7.0198   41.8539    6.7442 C.ar    1  UNL1        0.1384
     25 C           7.0449   41.2823    8.0264 C.ar    1  UNL1        0.0326
     26 C           8.2278   40.0072    5.6278 C.3     1  UNL1        0.2525
     27 O           7.3288   41.1079    5.6035 O.3     1  UNL1       -0.4714
@<TRIPOS>BOND
     1    11    12    1
     2    12    13   ar
     3    14    16   ar
     4    15    14    1
     5    10    13    1
     6    10     6    1
     7     6     8   am
     8     1     5   ar
     9     2     5   ar
    10    18     2    1
    11    18    19    1
    12    19    20    1
    13    21    22   ar
    14    23    24   ar
    15    24    27    1
    16    25    20   ar
    17    26    27    1
    18    16    17   ar
    19     8     1    1
    20     3     4   ar
    21    12    17   ar
    22    13    14   ar
    23     6     7    2
    24     1     3   ar
    25     2     4   ar
    26    20    21   ar
    27    22    23   ar
    28    24    25   ar
    29     8     9    1
@<TRIPOS>MOLECULE
MolPort-016-723-708 19658201 MCULE-8374060511 PubChem-46980742 ZINC000019658201 ZINC19658201
 27 29 0 0 0
SMALL
GASTEIGER

@<TRIPOS>ATOM
      1 C          10.9127   42.4418    9.5551 C.ar    1  UNL1        0.1878
      2 C           9.0374   42.5848   11.0424 C.ar    1  UNL1        0.1127
      3 N          10.6435   43.7039    9.9523 N.ar    1  UNL1       -0.1256
      4 N           9.6028   43.7831   10.7797 N.ar    1  UNL1       -0.1440
      5 S           9.8355   41.3368   10.2411 S.2     1  UNL1       -0.0347
      6 C          11.9006   41.8786    7.2657 C.2     1  UNL1        0.2321
      7 O          10.7938   41.9247    6.6669 O.2     1  UNL1       -0.2744
      8 N          11.9973   42.1328    8.6718 N.am    1  UNL1       -0.2625
      9 H          12.8966   42.0911    9.0701 H       1  UNL1        0.1568
     10 C          13.1292   41.5208    6.5035 C.3     1  UNL1        0.1158
     11 C          15.1079   40.5947    8.8230 C.3     1  UNL1        0.0553
     12 C          15.1822   41.8556    8.0347 C.ar    1  UNL1        0.0971
     13 C          14.3096   42.2586    7.0469 C.ar    1  UNL1        0.0366
     14 C          14.8261   43.4622    6.6210 C.ar    1  UNL1        0.1509
     15 C          14.2828   44.3353    5.5447 C.3     1  UNL1        0.0750
     16 O          15.9030   43.7290    7.3238 O.2     1  UNL1       -0.3584
     17 N          16.1482   42.7822    8.1859 N.ar    1  UNL1       -0.0821
     18 C           7.8787   42.4051   11.9636 C.3     1  UNL1        0.0592
     19 C           6.9983   41.2442   11.5064 C.3     1  UNL1        0.0334
     20 C           5.7009   41.6567   10.8691 C.ar    1  UNL1       -0.0188
     21 C           4.5126   41.1210   11.3755 C.ar    1  UNL1       -0.0041
     22 C           3.2825   41.4697   10.8108 C.ar    1  UNL1        0.0028
     23 C           3.2338   42.3568    9.7318 C.ar    1  UNL1        0.0369
     24 C           4.4124   42.8989    9.2105 C.ar    1  UNL1        0.1384
     25 C           5.6447   42.5432    9.7817 C.ar    1  UNL1        0.0326
     26 C           5.3747   44.6966    7.8111 C.3     1  UNL1        0.2525
     27 O           4.3335   43.7837    8.1316 O.3     1  UNL1       -0.4714
@<TRIPOS>BOND
     1    11    12    1
     2    12    13   ar
     3    14    16   ar
     4    15    14    1
     5    10    13    1
     6    10     6    1
     7     6     8   am
     8     1     5   ar
     9     2     5   ar
    10    18     2    1
    11    18    19    1
    12    19    20    1
    13    21    22   ar
    14    23    24   ar
    15    24    27    1
    16    25    20   ar
    17    26    27    1
    18    16    17   ar
    19     8     1    1
    20     3     4   ar
    21    12    17   ar
    22    13    14   ar
    23     6     7    2
    24     1     3   ar
    25     2     4   ar
    26    20    21   ar
    27    22    23   ar
    28    24    25   ar
    29     8     9    1
@<TRIPOS>MOLECULE
MolPort-016-723-708 19658201 MCULE-8374060511 PubChem-46980742 ZINC000019658201 ZINC19658201
 27 29 0 0 0
SMALL
GASTEIGER

@<TRIPOS>ATOM
      1 C           9.1191   42.0421    6.9907 C.ar    1  UNL1        0.1878
      2 C           7.2447   43.4607    7.4636 C.ar    1  UNL1        0.1127
      3 N           8.2970   42.2081    5.9325 N.ar    1  UNL1       -0.1256
      4 N           7.2567   42.9974    6.1948 N.ar    1  UNL1       -0.1440
      5 S           8.5706   42.9001    8.3379 S.2     1  UNL1       -0.0347
      6 C          11.4996   41.4226    7.6860 C.2     1  UNL1        0.2321
      7 O          11.5984   42.3480    8.5342 O.2     1  UNL1       -0.2744
      8 N          10.3030   41.2388    6.9208 N.am    1  UNL1       -0.2625
      9 H          10.2932   40.4873    6.2849 H       1  UNL1        0.1568
     10 C          12.6615   40.5210    7.4500 C.3     1  UNL1        0.1158
     11 C          14.8397   39.8746    9.6839 C.3     1  UNL1        0.0553
     12 C          14.8983   40.9588    8.6651 C.ar    1  UNL1        0.0971
     13 C          13.9415   41.2449    7.7153 C.ar    1  UNL1        0.0366
     14 C          14.4777   42.3026    7.0147 C.ar    1  UNL1        0.1509
     15 C          13.8661   43.0055    5.8539 C.3     1  UNL1        0.0750
     16 O          15.6448   42.6032    7.5367 O.2     1  UNL1       -0.3584
     17 N          15.9312   41.8136    8.5338 N.ar    1  UNL1       -0.0821
     18 C           6.2022   44.3865    7.9926 C.3     1  UNL1        0.0592
     19 C           4.8333   43.7100    8.0056 C.3     1  UNL1        0.0334
     20 C           4.5777   42.8391    9.2038 C.ar    1  UNL1       -0.0188
     21 C           3.2532   42.5331    9.5317 C.ar    1  UNL1       -0.0041
     22 C           2.9661   41.7328   10.6411 C.ar    1  UNL1        0.0028
     23 C           4.0048   41.2343   11.4325 C.ar    1  UNL1        0.0369
     24 C           5.3346   41.5334   11.1213 C.ar    1  UNL1        0.1384
     25 C           5.6158   42.3391   10.0063 C.ar    1  UNL1        0.0326
     26 C           7.6744   41.5438   11.9221 C.3     1  UNL1        0.2525
     27 O           6.3527   41.0209   11.9299 O.3     1  UNL1       -0.4714
@<TRIPOS>BOND
     1    11    12    1
     2    12    13   ar
     3    14    16   ar
     4    15    14    1
     5    10    13    1
     6    10     6    1
     7     6     8   am
     8     1     5   ar
     9     2     5   ar
    10    18     2    1
    11    18    19    1
    12    19    20    1
    13    21    22   ar
    14    23    24   ar
    15    24    27    1
    16    25    20   ar
    17    26    27    1
    18    16    17   ar
    19     8     1    1
    20     3     4   ar
    21    12    17   ar
    22    13    14   ar
    23     6     7    2
    24     1     3   ar
    25     2     4   ar
    26    20    21   ar
    27    22    23   ar
    28    24    25   ar
    29     8     9    1
@<TRIPOS>MOLECULE
MolPort-016-723-708 19658201 MCULE-8374060511 PubChem-46980742 ZINC000019658201 ZINC19658201
 27 29 0 0 0
SMALL
GASTEIGER

@<TRIPOS>ATOM
      1 C          11.2606   41.5806    9.9052 C.ar    1  UNL1        0.1878
      2 C           9.2633   42.1460   11.1056 C.ar    1  UNL1        0.1127
      3 N          10.7739   42.7987    9.5849 N.ar    1  UNL1       -0.1256
      4 N           9.6654   43.1134   10.2528 N.ar    1  UNL1       -0.1440
      5 S          10.3038   40.8221   11.0720 S.2     1  UNL1       -0.0347
      6 C          13.4590   40.2781    9.9706 C.2     1  UNL1        0.2321
      7 O          13.3591   39.9776   11.1894 O.2     1  UNL1       -0.2744
      8 N          12.4511   41.0518    9.3098 N.am    1  UNL1       -0.2625
      9 H          12.5902   41.2383    8.3531 H       1  UNL1        0.1568
     10 C          14.6647   39.8486    9.2087 C.3     1  UNL1        0.1158
     11 C          17.3571   39.4940   10.8756 C.3     1  UNL1        0.0553
     12 C          16.3743   38.4310   10.5276 C.ar    1  UNL1        0.0971
     13 C          15.2221   38.5889    9.7879 C.ar    1  UNL1        0.0366
     14 C          14.6623   37.3306    9.7761 C.ar    1  UNL1        0.1509
     15 C          13.3846   36.9286    9.1268 C.3     1  UNL1        0.0750
     16 O          15.4450   36.5167   10.4469 O.2     1  UNL1       -0.3584
     17 N          16.4869   37.1456   10.9146 N.ar    1  UNL1       -0.0821
     18 C           8.0687   42.2715   11.9893 C.3     1  UNL1        0.0592
     19 C           7.0944   41.1204   11.7496 C.3     1  UNL1        0.0334
     20 C           5.8738   41.4899   10.9539 C.ar    1  UNL1       -0.0188
     21 C           4.6693   40.8427   11.2469 C.ar    1  UNL1       -0.0041
     22 C           3.5095   41.1480   10.5290 C.ar    1  UNL1        0.0028
     23 C           3.5483   42.1034    9.5096 C.ar    1  UNL1        0.0369
     24 C           4.7448   42.7575    9.2009 C.ar    1  UNL1        0.1384
     25 C           5.9063   42.4449    9.9251 C.ar    1  UNL1        0.0326
     26 C           3.7787   44.7380    8.0782 C.3     1  UNL1        0.2525
     27 O           4.7539   43.7086    8.1770 O.3     1  UNL1       -0.4714
@<TRIPOS>BOND
     1    11    12    1
     2    12    13   ar
     3    14    16   ar
     4    15    14    1
     5    10    13    1
     6    10     6    1
     7     6     8   am
     8     1     5   ar
     9     2     5   ar
    10    18     2    1
    11    18    19    1
    12    19    20    1
    13    21    22   ar
    14    23    24   ar
    15    24    27    1
    16    25    20   ar
    17    26    27    1
    18    16    17   ar
    19     8     1    1
    20     3     4   ar
    21    12    17   ar
    22    13    14   ar
    23     6     7    2
    24     1     3   ar
    25     2     4   ar
    26    20    21   ar
    27    22    23   ar
    28    24    25   ar
    29     8     9    1
@<TRIPOS>MOLECULE
MolPort-016-723-708 19658201 MCULE-8374060511 PubChem-46980742 ZINC000019658201 ZINC19658201
 27 29 0 0 0
SMALL
GASTEIGER

@<TRIPOS>ATOM
      1 C           9.0838   41.4752    7.2840 C.ar    1  UNL1        0.1878
      2 C          11.3364   41.7477    6.5089 C.ar    1  UNL1        0.1127
      3 N           9.1883   41.4654    5.9378 N.ar    1  UNL1       -0.1256
      4 N          10.4397   41.6152    5.5074 N.ar    1  UNL1       -0.1440
      5 S          10.5919   41.6733    8.0178 S.2     1  UNL1       -0.0347
      6 C           7.4706   41.8722    9.2267 C.2     1  UNL1        0.2321
      7 O           8.2757   42.5884    9.8783 O.2     1  UNL1       -0.2744
      8 N           7.8278   41.3191    7.9549 N.am    1  UNL1       -0.2625
      9 H           7.1437   40.7791    7.4972 H       1  UNL1        0.1568
     10 C           6.1320   41.5670    9.8043 C.3     1  UNL1        0.1158
     11 C           2.9655   41.2250    9.7071 C.3     1  UNL1        0.0553
     12 C           3.7488   42.4212    9.2922 C.ar    1  UNL1        0.0971
     13 C           5.1204   42.5534    9.3177 C.ar    1  UNL1        0.0366
     14 C           5.3369   43.8367    8.8668 C.ar    1  UNL1        0.1509
     15 C           6.6514   44.5174    8.7101 C.3     1  UNL1        0.0750
     16 O           4.1761   44.3866    8.5928 O.2     1  UNL1       -0.3584
     17 N           3.1961   43.5624    8.8373 N.ar    1  UNL1       -0.0821
     18 C          12.8034   41.8970    6.2866 C.3     1  UNL1        0.0592
     19 C          13.3672   43.0329    7.1370 C.3     1  UNL1        0.0334
     20 C          14.8518   42.9674    7.3630 C.ar    1  UNL1       -0.0188
     21 C          15.6563   43.9511    6.7793 C.ar    1  UNL1       -0.0041
     22 C          17.0427   43.9273    6.9556 C.ar    1  UNL1        0.0028
     23 C          17.6343   42.9154    7.7169 C.ar    1  UNL1        0.0369
     24 C          16.8455   41.9218    8.3046 C.ar    1  UNL1        0.1384
     25 C          15.4536   41.9510    8.1221 C.ar    1  UNL1        0.0326
     26 C          16.7420   40.0629    9.9323 C.3     1  UNL1        0.2525
     27 O          17.4642   40.9227    9.0608 O.3     1  UNL1       -0.4714
@<TRIPOS>BOND
     1    11    12    1
     2    12    13   ar
     3    14    16   ar
     4    15    14    1
     5    10    13    1
     6    10     6    1
     7     6     8   am
     8     1     5   ar
     9     2     5   ar
    10    18     2    1
    11    18    19    1
    12    19    20    1
    13    21    22   ar
    14    23    24   ar
    15    24    27    1
    16    25    20   ar
    17    26    27    1
    18    16    17   ar
    19     8     1    1
    20     3     4   ar
    21    12    17   ar
    22    13    14   ar
    23     6     7    2
    24     1     3   ar
    25     2     4   ar
    26    20    21   ar
    27    22    23   ar
    28    24    25   ar
    29     8     9    1
@<TRIPOS>MOLECULE
MolPort-016-723-708 19658201 MCULE-8374060511 PubChem-46980742 ZINC000019658201 ZINC19658201
 27 29 0 0 0
SMALL
GASTEIGER

@<TRIPOS>ATOM
      1 C           8.2409   42.6566    6.8554 C.ar    1  UNL1        0.1878
      2 C           6.3135   43.8702    7.6048 C.ar    1  UNL1        0.1127
      3 N           7.2605   42.7230    5.9293 N.ar    1  UNL1       -0.1256
      4 N           6.1906   43.3984    6.3451 N.ar    1  UNL1       -0.1440
      5 S           7.8051   43.4640    8.2733 S.2     1  UNL1       -0.0347
      6 C           9.6959   40.9090    5.6878 C.2     1  UNL1        0.2321
      7 O           8.7587   40.4598    4.9769 O.2     1  UNL1       -0.2744
      8 N           9.4816   41.9845    6.6090 N.am    1  UNL1       -0.2625
      9 H          10.2631   42.2918    7.1229 H       1  UNL1        0.1568
     10 C          11.0466   40.2885    5.5932 C.3     1  UNL1        0.1158
     11 C          10.7189   38.5803    8.2629 C.3     1  UNL1        0.0553
     12 C          11.6641   39.7074    8.0329 C.ar    1  UNL1        0.0971
     13 C          11.7850   40.4552    6.8816 C.ar    1  UNL1        0.0366
     14 C          12.8019   41.3391    7.1672 C.ar    1  UNL1        0.1509
     15 C          13.3626   42.3774    6.2598 C.3     1  UNL1        0.0750
     16 O          13.2174   41.1188    8.3935 O.2     1  UNL1       -0.3584
     17 N          12.5541   40.1419    8.9461 N.ar    1  UNL1       -0.0821
     18 C           5.2655   44.6839    8.2855 C.3     1  UNL1        0.0592
     19 C           3.9854   43.8724    8.4711 C.3     1  UNL1        0.0334
     20 C           4.1240   42.6858    9.3833 C.ar    1  UNL1       -0.0188
     21 C           3.1277   41.7051    9.3531 C.ar    1  UNL1       -0.0041
     22 C           3.2099   40.5873   10.1883 C.ar    1  UNL1        0.0028
     23 C           4.2910   40.4446   11.0626 C.ar    1  UNL1        0.0369
     24 C           5.2942   41.4174   11.1086 C.ar    1  UNL1        0.1384
     25 C           5.2045   42.5384   10.2679 C.ar    1  UNL1        0.0326
     26 C           7.6784   41.7026   11.7003 C.3     1  UNL1        0.2525
     27 O           6.3636   41.2484   11.9923 O.3     1  UNL1       -0.4714
@<TRIPOS>BOND
     1    11    12    1
     2    12    13   ar
     3    14    16   ar
     4    15    14    1
     5    10    13    1
     6    10     6    1
     7     6     8   am
     8     1     5   ar
     9     2     5   ar
    10    18     2    1
    11    18    19    1
    12    19    20    1
    13    21    22   ar
    14    23    24   ar
    15    24    27    1
    16    25    20   ar
    17    26    27    1
    18    16    17   ar
    19     8     1    1
    20     3     4   ar
    21    12    17   ar
    22    13    14   ar
    23     6     7    2
    24     1     3   ar
    25     2     4   ar
    26    20    21   ar
    27    22    23   ar
    28    24    25   ar
    29     8     9    1
@<TRIPOS>MOLECULE
MolPort-016-723-708 19658201 MCULE-8374060511 PubChem-46980742 ZINC000019658201 ZINC19658201
 27 29 0 0 0
SMALL
GASTEIGER

@<TRIPOS>ATOM
      1 C           9.7695   41.5217    9.4255 C.ar    1  UNL1        0.1878
      2 C          11.9090   41.1805    8.3981 C.ar    1  UNL1        0.1127
      3 N          10.5765   42.6013    9.5053 N.ar    1  UNL1       -0.1256
      4 N          11.7643   42.4123    8.9332 N.ar    1  UNL1       -0.1440
      5 S          10.5226   40.2482    8.6112 S.2     1  UNL1       -0.0347
      6 C           7.2261   41.3534    9.2327 C.2     1  UNL1        0.2321
      7 O           7.2333   41.1805    7.9854 O.2     1  UNL1       -0.2744
      8 N           8.4440   41.5157    9.9686 N.am    1  UNL1       -0.2625
      9 H           8.3623   41.6346   10.9424 H       1  UNL1        0.1568
     10 C           5.9243   41.4234    9.9531 C.3     1  UNL1        0.1158
     11 C           2.7649   41.4178    9.5400 C.3     1  UNL1        0.0553
     12 C           3.7063   42.5264    9.2215 C.ar    1  UNL1        0.0971
     13 C           5.0749   42.5130    9.3837 C.ar    1  UNL1        0.0366
     14 C           5.4681   43.7681    8.9750 C.ar    1  UNL1        0.1509
     15 C           6.8556   44.3069    8.9582 C.3     1  UNL1        0.0750
     16 O           4.4042   44.4386    8.5961 O.2     1  UNL1       -0.3584
     17 N           3.3239   43.7214    8.7311 N.ar    1  UNL1       -0.0821
     18 C          13.1349   40.7354    7.6751 C.3     1  UNL1        0.0592
     19 C          14.3507   40.7704    8.5982 C.3     1  UNL1        0.0334
     20 C          15.4323   41.7231    8.1717 C.ar    1  UNL1       -0.0188
     21 C          16.6891   41.6138    8.7751 C.ar    1  UNL1       -0.0041
     22 C          17.7239   42.4822    8.4160 C.ar    1  UNL1        0.0028
     23 C          17.5065   43.4690    7.4504 C.ar    1  UNL1        0.0369
     24 C          16.2551   43.5948    6.8397 C.ar    1  UNL1        0.1384
     25 C          15.2197   42.7201    7.2062 C.ar    1  UNL1        0.0326
     26 C          14.7970   45.1742    5.6168 C.3     1  UNL1        0.2525
     27 O          16.0665   44.5903    5.8772 O.3     1  UNL1       -0.4714
@<TRIPOS>BOND
     1    11    12    1
     2    12    13   ar
     3    14    16   ar
     4    15    14    1
     5    10    13    1
     6    10     6    1
     7     6     8   am
     8     1     5   ar
     9     2     5   ar
    10    18     2    1
    11    18    19    1
    12    19    20    1
    13    21    22   ar
    14    23    24   ar
    15    24    27    1
    16    25    20   ar
    17    26    27    1
    18    16    17   ar
    19     8     1    1
    20     3     4   ar
    21    12    17   ar
    22    13    14   ar
    23     6     7    2
    24     1     3   ar
    25     2     4   ar
    26    20    21   ar
    27    22    23   ar
    28    24    25   ar
    29     8     9    1
