@<TRIPOS>MOLECULE
MolPort-002-764-926 MCULE-8940206986 PubChem-19587676
 29 31 0 0 0
SMALL
GASTEIGER

@<TRIPOS>ATOM
      1 C          10.0103   41.1640    7.8598 C.3     1  UNL1        0.0945
      2 C          10.1306   39.6648    8.0891 C.3     1  UNL1        0.0120
      3 C          11.6001   39.2823    8.1245 C.3     1  UNL1        0.0197
      4 C          12.2765   39.6952    6.8155 C.3     1  UNL1        0.0958
      5 C          10.7121   41.5549    6.5564 C.3     1  UNL1        0.1048
      6 N          12.1188   41.1274    6.5183 N.3     1  UNL1       -0.1550
      7 C           8.5772   41.5760    7.8233 C.2     1  UNL1        0.2271
      8 O           7.8301   41.1128    6.9210 O.2     1  UNL1       -0.2747
      9 N           8.0666   42.4854    8.8081 N.am    1  UNL1       -0.2814
     10 H           8.6948   42.8078    9.4942 H       1  UNL1        0.1549
     11 C           5.6509   42.2397    9.3555 C.ar    1  UNL1        0.1140
     12 C           6.7189   42.9628    8.8754 C.ar    1  UNL1        0.0906
     13 C           6.2502   44.2051    8.4875 C.ar    1  UNL1        0.1364
     14 N           4.5832   43.0498    9.2442 N.ar    1  UNL1       -0.2187
     15 N           4.9252   44.2221    8.7326 N.ar    1  UNL1       -0.1641
     16 C           3.2276   42.7116    9.6426 C.3     1  UNL1        0.2733
     17 O           3.0727   41.3249    9.6614 O.3     1  UNL1       -0.3311
     18 C           3.4957   40.0221   11.6041 C.3     1  UNL1        0.0347
     19 C           4.0912   40.8702   10.4994 C.3     1  UNL1        0.1446
     20 O          12.2757   43.0987    8.3275 O.2     1  UNL1       -0.1527
     21 O          13.8130   41.2153    8.5572 O.2     1  UNL1       -0.1527
     22 S          13.1104   42.1041    7.5685 S.O2    1  UNL1        0.0660
     23 C          14.3176   42.9577    6.6182 C.ar    1  UNL1        0.1560
     24 C          15.6718   43.0442    6.8532 C.ar    1  UNL1        0.0761
     25 C          16.4321   42.4196    7.9754 C.3     1  UNL1        0.0532
     26 C          17.6107   44.1611    5.7422 C.3     1  UNL1        0.1534
     27 C          14.0800   43.7076    5.4788 C.ar    1  UNL1        0.1411
     28 N          16.2081   43.8089    5.8883 N.ar    1  UNL1       -0.2515
     29 N          15.2607   44.2135    5.0581 N.ar    1  UNL1       -0.1665
@<TRIPOS>BOND
     1    18    19    1
     2    19    17    1
     3    16    17    1
     4    16    14    1
     5    12     9    1
     6    12    13   ar
     7     1     7    1
     8     1     2    1
     9     2     3    1
    10     3     4    1
    11     4     6    1
    12     5     6    1
    13     5     1    1
    14    24    28   ar
    15    25    24    1
    16    26    28    1
    17    27    23   ar
    18    14    11   ar
    19    14    15   ar
    20     9     7   am
    21    28    29   ar
    22    22     6    1
    23    22    23    1
    24    11    12   ar
    25     7     8    2
    26    23    24   ar
    27    27    29   ar
    28    13    15   ar
    29    22    20    2
    30    22    21    2
    31     9    10    1
@<TRIPOS>MOLECULE
MolPort-002-764-926 MCULE-8940206986 PubChem-19587676
 29 31 0 0 0
SMALL
GASTEIGER

@<TRIPOS>ATOM
      1 C          11.0376   41.6399    6.2447 C.3     1  UNL1        0.0945
      2 C          11.3329   40.6600    5.1189 C.3     1  UNL1        0.0120
      3 C          10.0401   39.9860    4.6929 C.3     1  UNL1        0.0197
      4 C           9.4057   39.2746    5.8900 C.3     1  UNL1        0.0958
      5 C          10.3847   40.9089    7.4209 C.3     1  UNL1        0.1048
      6 N           9.1720   40.1740    7.0305 N.3     1  UNL1       -0.1550
      7 C          12.2872   42.3243    6.6860 C.2     1  UNL1        0.2271
      8 O          12.5476   42.3888    7.9169 O.2     1  UNL1       -0.2747
      9 N          13.1743   42.8955    5.7142 N.am    1  UNL1       -0.2814
     10 H          12.9235   42.8069    4.7663 H       1  UNL1        0.1549
     11 C          15.3655   43.1289    6.8717 C.ar    1  UNL1        0.1140
     12 C          14.3942   43.5836    6.0092 C.ar    1  UNL1        0.0906
     13 C          14.8174   44.7959    5.4947 C.ar    1  UNL1        0.1364
     14 N          16.3318   44.0642    6.8576 N.ar    1  UNL1       -0.2187
     15 N          16.0206   45.0591    6.0413 N.ar    1  UNL1       -0.1641
     16 C          17.5698   44.0038    7.6155 C.3     1  UNL1        0.2733
     17 O          17.3735   43.2650    8.7829 O.3     1  UNL1       -0.3311
     18 C          17.1589   40.9734    9.3775 C.3     1  UNL1        0.0347
     19 C          17.8249   41.9834    8.4661 C.3     1  UNL1        0.1446
     20 O           8.3303   42.6668    6.5190 O.2     1  UNL1       -0.1527
     21 O           7.1243   40.8189    5.4729 O.2     1  UNL1       -0.1527
     22 S           7.8425   41.2581    6.7189 S.O2    1  UNL1        0.0660
     23 C           6.7148   41.2151    8.0663 C.ar    1  UNL1        0.1560
     24 C           6.9753   41.4674    9.3948 C.ar    1  UNL1        0.0761
     25 C           8.2865   41.8467    9.9984 C.3     1  UNL1        0.0532
     26 C           5.6423   41.4731   11.5077 C.3     1  UNL1        0.1534
     27 C           5.3705   40.8909    7.9965 C.ar    1  UNL1        0.1411
     28 N           5.8299   41.3033   10.0763 N.ar    1  UNL1       -0.2515
     29 N           4.8598   40.9560    9.2464 N.ar    1  UNL1       -0.1665
@<TRIPOS>BOND
     1    18    19    1
     2    19    17    1
     3    16    17    1
     4    16    14    1
     5    12     9    1
     6    12    13   ar
     7     1     7    1
     8     1     2    1
     9     2     3    1
    10     3     4    1
    11     4     6    1
    12     5     6    1
    13     5     1    1
    14    24    28   ar
    15    25    24    1
    16    26    28    1
    17    27    23   ar
    18    14    11   ar
    19    14    15   ar
    20     9     7   am
    21    28    29   ar
    22    22     6    1
    23    22    23    1
    24    11    12   ar
    25     7     8    2
    26    23    24   ar
    27    27    29   ar
    28    13    15   ar
    29    22    20    2
    30    22    21    2
    31     9    10    1
@<TRIPOS>MOLECULE
MolPort-002-764-926 MCULE-8940206986 PubChem-19587676
 29 31 0 0 0
SMALL
GASTEIGER

@<TRIPOS>ATOM
      1 C           9.9688   42.2361    9.5240 C.3     1  UNL1        0.0945
      2 C          10.1502   41.4621   10.8211 C.3     1  UNL1        0.0120
      3 C           8.7908   41.0116   11.3270 C.3     1  UNL1        0.0197
      4 C           7.8839   42.2268   11.5331 C.3     1  UNL1        0.0958
      5 C           9.0418   43.4334    9.7508 C.3     1  UNL1        0.1048
      6 N           7.7419   43.0457   10.3192 N.3     1  UNL1       -0.1550
      7 C          11.2873   42.6913    8.9956 C.2     1  UNL1        0.2271
      8 O          11.7863   43.7612    9.4351 O.2     1  UNL1       -0.2747
      9 N          11.9702   41.9129    8.0030 N.am    1  UNL1       -0.2814
     10 H          11.5362   41.0815    7.7035 H       1  UNL1        0.1549
     11 C          13.4046   43.1381    6.3791 C.ar    1  UNL1        0.1140
     12 C          13.2307   42.2455    7.4120 C.ar    1  UNL1        0.0906
     13 C          14.4751   41.7520    7.7604 C.ar    1  UNL1        0.1364
     14 N          14.7267   43.1576    6.1334 N.ar    1  UNL1       -0.2187
     15 N          15.3754   42.3408    6.9488 N.ar    1  UNL1       -0.1641
     16 C          15.3810   43.9723    5.1240 C.3     1  UNL1        0.2733
     17 O          15.9629   45.0901    5.7234 O.3     1  UNL1       -0.3311
     18 C          18.0304   43.9185    5.6632 C.3     1  UNL1        0.0347
     19 C          16.9730   44.5678    6.5318 C.3     1  UNL1        0.1446
     20 O           6.9846   42.8092    7.7590 O.2     1  UNL1       -0.1527
     21 O           7.0584   40.7817    9.1181 O.2     1  UNL1       -0.1527
     22 S           6.7397   42.2512    9.1341 S.O2    1  UNL1        0.0660
     23 C           5.0462   42.4577    9.5563 C.ar    1  UNL1        0.1560
     24 C           4.3444   41.8350   10.5644 C.ar    1  UNL1        0.0761
     25 C           4.8695   40.8385   11.5436 C.3     1  UNL1        0.0532
     26 C           1.9901   41.8856   11.3982 C.3     1  UNL1        0.1534
     27 C           4.1371   43.2777    8.9096 C.ar    1  UNL1        0.1411
     28 N           3.0768   42.2754   10.5152 N.ar    1  UNL1       -0.2515
     29 N           2.9410   43.1415    9.5243 N.ar    1  UNL1       -0.1665
@<TRIPOS>BOND
     1    18    19    1
     2    19    17    1
     3    16    17    1
     4    16    14    1
     5    12     9    1
     6    12    13   ar
     7     1     7    1
     8     1     2    1
     9     2     3    1
    10     3     4    1
    11     4     6    1
    12     5     6    1
    13     5     1    1
    14    24    28   ar
    15    25    24    1
    16    26    28    1
    17    27    23   ar
    18    14    11   ar
    19    14    15   ar
    20     9     7   am
    21    28    29   ar
    22    22     6    1
    23    22    23    1
    24    11    12   ar
    25     7     8    2
    26    23    24   ar
    27    27    29   ar
    28    13    15   ar
    29    22    20    2
    30    22    21    2
    31     9    10    1
@<TRIPOS>MOLECULE
MolPort-002-764-926 MCULE-8940206986 PubChem-19587676
 29 31 0 0 0
SMALL
GASTEIGER

@<TRIPOS>ATOM
      1 C           9.6359   42.1724    9.7373 C.3     1  UNL1        0.0945
      2 C           9.7602   41.4662   11.0792 C.3     1  UNL1        0.0120
      3 C           8.3787   41.0491   11.5528 C.3     1  UNL1        0.0197
      4 C           7.4725   42.2777   11.6588 C.3     1  UNL1        0.0958
      5 C           8.7088   43.3842    9.8642 C.3     1  UNL1        0.1048
      6 N           7.3846   43.0327   10.3992 N.3     1  UNL1       -0.1550
      7 C          10.9775   42.5932    9.2394 C.2     1  UNL1        0.2271
      8 O          11.4716   43.6758    9.6526 O.2     1  UNL1       -0.2747
      9 N          11.6877   41.7680    8.3054 N.am    1  UNL1       -0.2814
     10 H          11.2560   40.9289    8.0247 H       1  UNL1        0.1549
     11 C          13.2241   43.0684    6.8410 C.ar    1  UNL1        0.1140
     12 C          12.9723   42.0643    7.7480 C.ar    1  UNL1        0.0906
     13 C          14.1681   41.4209    8.0115 C.ar    1  UNL1        0.1364
     14 N          14.5424   43.0040    6.5832 N.ar    1  UNL1       -0.2187
     15 N          15.1165   42.0314    7.2741 N.ar    1  UNL1       -0.1641
     16 C          15.2658   43.8856    5.6831 C.3     1  UNL1        0.2733
     17 O          16.0977   44.7315    6.4176 O.3     1  UNL1       -0.3311
     18 C          18.0255   44.0395    7.6240 C.3     1  UNL1        0.0347
     19 C          17.3732   44.1873    6.2649 C.3     1  UNL1        0.1446
     20 O           6.0903   40.7946    9.6920 O.2     1  UNL1       -0.1527
     21 O           5.1420   42.9315    8.9864 O.2     1  UNL1       -0.1527
     22 S           6.4251   42.1821    9.2177 S.O2    1  UNL1        0.0660
     23 C           7.3046   42.0850    7.6992 C.ar    1  UNL1        0.1560
     24 C           8.1161   41.0643    7.2562 C.ar    1  UNL1        0.0761
     25 C           8.4303   39.7910    7.9686 C.3     1  UNL1        0.0532
     26 C           9.4915   40.6318    5.2161 C.3     1  UNL1        0.1534
     27 C           7.3335   43.0519    6.7085 C.ar    1  UNL1        0.1411
     28 N           8.5972   41.4150    6.0526 N.ar    1  UNL1       -0.2515
     29 N           8.1344   42.6074    5.7144 N.ar    1  UNL1       -0.1665
@<TRIPOS>BOND
     1    18    19    1
     2    19    17    1
     3    16    17    1
     4    16    14    1
     5    12     9    1
     6    12    13   ar
     7     1     7    1
     8     1     2    1
     9     2     3    1
    10     3     4    1
    11     4     6    1
    12     5     6    1
    13     5     1    1
    14    24    28   ar
    15    25    24    1
    16    26    28    1
    17    27    23   ar
    18    14    11   ar
    19    14    15   ar
    20     9     7   am
    21    28    29   ar
    22    22     6    1
    23    22    23    1
    24    11    12   ar
    25     7     8    2
    26    23    24   ar
    27    27    29   ar
    28    13    15   ar
    29    22    20    2
    30    22    21    2
    31     9    10    1
@<TRIPOS>MOLECULE
MolPort-002-764-926 MCULE-8940206986 PubChem-19587676
 29 31 0 0 0
SMALL
GASTEIGER

@<TRIPOS>ATOM
      1 C           9.6485   41.6526    9.7647 C.3     1  UNL1        0.0945
      2 C          10.1827   41.1612   11.1018 C.3     1  UNL1        0.0120
      3 C          11.6400   40.7647   10.9409 C.3     1  UNL1        0.0197
      4 C          11.7692   39.6838    9.8655 C.3     1  UNL1        0.0958
      5 C           9.8080   40.5625    8.7015 C.3     1  UNL1        0.1048
      6 N          11.1957   40.0923    8.5737 N.3     1  UNL1       -0.1550
      7 C           8.2175   42.0551    9.8871 C.2     1  UNL1        0.2271
      8 O           7.9018   43.2593    9.6942 O.2     1  UNL1       -0.2747
      9 N           7.2224   41.0762   10.2176 N.am    1  UNL1       -0.2814
     10 H           7.5266   40.1491   10.3483 H       1  UNL1        0.1549
     11 C           5.1341   41.2505   11.5609 C.ar    1  UNL1        0.1140
     12 C           5.8235   41.3366   10.3729 C.ar    1  UNL1        0.0906
     13 C           4.9284   41.7178    9.3896 C.ar    1  UNL1        0.1364
     14 N           3.8620   41.5738   11.2679 N.ar    1  UNL1       -0.2187
     15 N           3.7259   41.8566    9.9816 N.ar    1  UNL1       -0.1641
     16 C           2.7686   41.6294   12.2230 C.3     1  UNL1        0.2733
     17 O           1.7539   42.4521   11.7322 O.3     1  UNL1       -0.3311
     18 C           0.9506   41.8142   13.8766 C.3     1  UNL1        0.0347
     19 C           1.1138   42.9370   12.8731 C.3     1  UNL1        0.1446
     20 O          12.1050   41.1535    6.2866 O.2     1  UNL1       -0.1527
     21 O          11.7475   42.6563    8.1779 O.2     1  UNL1       -0.1527
     22 S          12.2000   41.2778    7.7825 S.O2    1  UNL1        0.0660
     23 C          13.8717   41.0665    8.2822 C.ar    1  UNL1        0.1560
     24 C          14.9495   41.8723    7.9899 C.ar    1  UNL1        0.0761
     25 C          14.9422   43.1263    7.1806 C.3     1  UNL1        0.0532
     26 C          17.3926   41.8478    8.5109 C.3     1  UNL1        0.1534
     27 C          14.3715   40.0223    9.0417 C.ar    1  UNL1        0.1411
     28 N          16.0365   41.3268    8.5590 N.ar    1  UNL1       -0.2515
     29 N          15.7010   40.2147    9.1924 N.ar    1  UNL1       -0.1665
@<TRIPOS>BOND
     1    18    19    1
     2    19    17    1
     3    16    17    1
     4    16    14    1
     5    12     9    1
     6    12    13   ar
     7     1     7    1
     8     1     2    1
     9     2     3    1
    10     3     4    1
    11     4     6    1
    12     5     6    1
    13     5     1    1
    14    24    28   ar
    15    25    24    1
    16    26    28    1
    17    27    23   ar
    18    14    11   ar
    19    14    15   ar
    20     9     7   am
    21    28    29   ar
    22    22     6    1
    23    22    23    1
    24    11    12   ar
    25     7     8    2
    26    23    24   ar
    27    27    29   ar
    28    13    15   ar
    29    22    20    2
    30    22    21    2
    31     9    10    1
@<TRIPOS>MOLECULE
MolPort-002-764-926 MCULE-8940206986 PubChem-19587676
 29 31 0 0 0
SMALL
GASTEIGER

@<TRIPOS>ATOM
      1 C          11.9116   38.2139    9.5437 C.3     1  UNL1        0.0945
      2 C          11.1833   36.9365    9.9342 C.3     1  UNL1        0.0120
      3 C          12.0829   36.1043   10.8314 C.3     1  UNL1        0.0197
      4 C          13.3939   35.7912   10.1068 C.3     1  UNL1        0.0958
      5 C          13.2284   37.8748    8.8401 C.3     1  UNL1        0.1048
      6 N          14.0940   37.0002    9.6456 N.3     1  UNL1       -0.1550
      7 C          11.0537   39.0590    8.6636 C.2     1  UNL1        0.2271
      8 O          11.1603   40.3127    8.7265 O.2     1  UNL1       -0.2747
      9 N          10.1255   38.4427    7.7601 N.am    1  UNL1       -0.2814
     10 H          10.0922   37.4588    7.7482 H       1  UNL1        0.1549
     11 C           8.3374   40.1010    7.2615 C.ar    1  UNL1        0.1140
     12 C           9.2439   39.1405    6.8744 C.ar    1  UNL1        0.0906
     13 C           9.1431   38.9902    5.5030 C.ar    1  UNL1        0.1364
     14 N           7.7218   40.4965    6.1332 N.ar    1  UNL1       -0.2187
     15 N           8.1927   39.8467    5.0801 N.ar    1  UNL1       -0.1641
     16 C           6.6868   41.5130    6.0536 C.3     1  UNL1        0.2733
     17 O           7.2633   42.7539    5.7796 O.3     1  UNL1       -0.3311
     18 C           7.2447   43.7792    7.9241 C.3     1  UNL1        0.0347
     19 C           6.5575   43.6523    6.5802 C.3     1  UNL1        0.1446
     20 O          13.7740   38.6694   11.7182 O.2     1  UNL1       -0.1527
     21 O          15.4231   36.8817   11.9380 O.2     1  UNL1       -0.1527
     22 S          14.8088   37.8650   10.9803 S.O2    1  UNL1        0.0660
     23 C          16.0682   38.9368   10.3852 C.ar    1  UNL1        0.1560
     24 C          15.9161   40.1102    9.6807 C.ar    1  UNL1        0.0761
     25 C          14.6336   40.7502    9.2646 C.3     1  UNL1        0.0532
     26 C          17.4533   41.8151    8.6951 C.3     1  UNL1        0.1534
     27 C          17.4331   38.7460   10.5176 C.ar    1  UNL1        0.1411
     28 N          17.1412   40.5916    9.4151 N.ar    1  UNL1       -0.2515
     29 N          18.0598   39.7795    9.9123 N.ar    1  UNL1       -0.1665
@<TRIPOS>BOND
     1    18    19    1
     2    19    17    1
     3    16    17    1
     4    16    14    1
     5    12     9    1
     6    12    13   ar
     7     1     7    1
     8     1     2    1
     9     2     3    1
    10     3     4    1
    11     4     6    1
    12     5     6    1
    13     5     1    1
    14    24    28   ar
    15    25    24    1
    16    26    28    1
    17    27    23   ar
    18    14    11   ar
    19    14    15   ar
    20     9     7   am
    21    28    29   ar
    22    22     6    1
    23    22    23    1
    24    11    12   ar
    25     7     8    2
    26    23    24   ar
    27    27    29   ar
    28    13    15   ar
    29    22    20    2
    30    22    21    2
    31     9    10    1
@<TRIPOS>MOLECULE
MolPort-002-764-926 MCULE-8940206986 PubChem-19587676
 29 31 0 0 0
SMALL
GASTEIGER

@<TRIPOS>ATOM
      1 C          10.5598   41.1306   10.2194 C.3     1  UNL1        0.0945
      2 C          11.3520   40.4303   11.3133 C.3     1  UNL1        0.0120
      3 C          12.7682   40.1834   10.8229 C.3     1  UNL1        0.0197
      4 C          12.7366   39.3451    9.5432 C.3     1  UNL1        0.0958
      5 C          10.5606   40.2831    8.9443 C.3     1  UNL1        0.1048
      6 N          11.9174   39.9525    8.4828 N.3     1  UNL1       -0.1550
      7 C           9.1621   41.3927   10.6695 C.2     1  UNL1        0.2271
      8 O           8.9655   41.8199   11.8381 O.2     1  UNL1       -0.2747
      9 N           8.0648   41.1607    9.7753 N.am    1  UNL1       -0.2814
     10 H           8.2796   40.8350    8.8714 H       1  UNL1        0.1549
     11 C           5.6811   41.5292    9.1603 C.ar    1  UNL1        0.1140
     12 C           6.6831   41.3637   10.0891 C.ar    1  UNL1        0.0906
     13 C           6.1102   41.4246   11.3467 C.ar    1  UNL1        0.1364
     14 N           4.5493   41.6857    9.8696 N.ar    1  UNL1       -0.2187
     15 N           4.7890   41.6229   11.1702 N.ar    1  UNL1       -0.1641
     16 C           3.2250   41.8814    9.3051 C.3     1  UNL1        0.2733
     17 O           2.9225   43.2432    9.2706 O.3     1  UNL1       -0.3311
     18 C           3.5631   45.0026    7.8061 C.3     1  UNL1        0.0347
     19 C           4.0241   43.8308    8.6480 C.3     1  UNL1        0.1446
     20 O          12.5558   41.3591    6.2924 O.2     1  UNL1       -0.1527
     21 O          12.0973   42.5954    8.3478 O.2     1  UNL1       -0.1527
     22 S          12.7104   41.3414    7.7884 S.O2    1  UNL1        0.0660
     23 C          14.4189   41.3153    8.1998 C.ar    1  UNL1        0.1560
     24 C          15.3946   42.2077    7.8151 C.ar    1  UNL1        0.0761
     25 C          15.2203   43.4178    6.9589 C.3     1  UNL1        0.0532
     26 C          17.8523   42.4429    8.1963 C.3     1  UNL1        0.1534
     27 C          15.0593   40.3593    8.9699 C.ar    1  UNL1        0.1411
     28 N          16.5590   41.7958    8.3421 N.ar    1  UNL1       -0.2515
     29 N          16.3692   40.6859    9.0368 N.ar    1  UNL1       -0.1665
@<TRIPOS>BOND
     1    18    19    1
     2    19    17    1
     3    16    17    1
     4    16    14    1
     5    12     9    1
     6    12    13   ar
     7     1     7    1
     8     1     2    1
     9     2     3    1
    10     3     4    1
    11     4     6    1
    12     5     6    1
    13     5     1    1
    14    24    28   ar
    15    25    24    1
    16    26    28    1
    17    27    23   ar
    18    14    11   ar
    19    14    15   ar
    20     9     7   am
    21    28    29   ar
    22    22     6    1
    23    22    23    1
    24    11    12   ar
    25     7     8    2
    26    23    24   ar
    27    27    29   ar
    28    13    15   ar
    29    22    20    2
    30    22    21    2
    31     9    10    1
@<TRIPOS>MOLECULE
MolPort-002-764-926 MCULE-8940206986 PubChem-19587676
 29 31 0 0 0
SMALL
GASTEIGER

@<TRIPOS>ATOM
      1 C           8.2034   41.0012    8.2102 C.3     1  UNL1        0.0945
      2 C           7.6761   40.1167    7.0903 C.3     1  UNL1        0.0120
      3 C           8.8484   39.4804    6.3639 C.3     1  UNL1        0.0197
      4 C           9.7739   40.5692    5.8164 C.3     1  UNL1        0.0958
      5 C           9.1422   42.0680    7.6406 C.3     1  UNL1        0.1048
      6 N          10.2474   41.4932    6.8587 N.3     1  UNL1       -0.1550
      7 C           7.0763   41.6404    8.9490 C.2     1  UNL1        0.2271
      8 O           7.2770   42.7307    9.5473 O.2     1  UNL1       -0.2747
      9 N           5.7853   41.0154    8.9693 N.am    1  UNL1       -0.2814
     10 H           5.6853   40.1690    8.4766 H       1  UNL1        0.1549
     11 C           4.3219   41.2773   10.9657 C.ar    1  UNL1        0.1140
     12 C           4.6304   41.5213    9.6469 C.ar    1  UNL1        0.0906
     13 C           3.6392   42.3309    9.1221 C.ar    1  UNL1        0.1364
     14 N           3.1707   41.9326   11.1977 N.ar    1  UNL1       -0.2187
     15 N           2.7550   42.5655   10.1115 N.ar    1  UNL1       -0.1641
     16 C           2.4673   41.9701   12.4683 C.3     1  UNL1        0.2733
     17 O           1.2246   42.5829   12.3026 O.3     1  UNL1       -0.3311
     18 C          -0.6957   42.2989   13.6746 C.3     1  UNL1        0.0347
     19 C           0.7454   42.7594   13.6010 C.3     1  UNL1        0.1446
     20 O          11.0653   40.8954    9.3402 O.2     1  UNL1       -0.1527
     21 O          11.4901   39.2621    7.5752 O.2     1  UNL1       -0.1527
     22 S          11.4289   40.7313    7.8900 S.O2    1  UNL1        0.0660
     23 C          13.0118   41.4379    7.6001 C.ar    1  UNL1        0.1560
     24 C          14.1693   41.2426    8.3202 C.ar    1  UNL1        0.0761
     25 C          14.3473   40.3709    9.5185 C.3     1  UNL1        0.0532
     26 C          16.5175   42.0855    8.1922 C.3     1  UNL1        0.1534
     27 C          13.3344   42.3353    6.5963 C.ar    1  UNL1        0.1411
     28 N          15.1333   41.9903    7.7590 N.ar    1  UNL1       -0.2515
     29 N          14.6425   42.6515    6.7235 N.ar    1  UNL1       -0.1665
@<TRIPOS>BOND
     1    18    19    1
     2    19    17    1
     3    16    17    1
     4    16    14    1
     5    12     9    1
     6    12    13   ar
     7     1     7    1
     8     1     2    1
     9     2     3    1
    10     3     4    1
    11     4     6    1
    12     5     6    1
    13     5     1    1
    14    24    28   ar
    15    25    24    1
    16    26    28    1
    17    27    23   ar
    18    14    11   ar
    19    14    15   ar
    20     9     7   am
    21    28    29   ar
    22    22     6    1
    23    22    23    1
    24    11    12   ar
    25     7     8    2
    26    23    24   ar
    27    27    29   ar
    28    13    15   ar
    29    22    20    2
    30    22    21    2
    31     9    10    1
@<TRIPOS>MOLECULE
MolPort-002-764-926 MCULE-8940206986 PubChem-19587676
 29 31 0 0 0
SMALL
GASTEIGER

@<TRIPOS>ATOM
      1 C          10.8549   40.5521   10.1799 C.3     1  UNL1        0.0945
      2 C          10.3957   40.9962   11.5606 C.3     1  UNL1        0.0120
      3 C           9.1838   41.9002   11.4160 C.3     1  UNL1        0.0197
      4 C           9.5346   43.1038   10.5386 C.3     1  UNL1        0.0958
      5 C          11.1794   41.7731    9.3151 C.3     1  UNL1        0.1048
      6 N          10.0545   42.7157    9.2183 N.3     1  UNL1       -0.1550
      7 C          12.0439   39.6576   10.2847 C.2     1  UNL1        0.2271
      8 O          13.0820   40.0842   10.8567 O.2     1  UNL1       -0.2747
      9 N          11.9944   38.3312    9.7407 N.am    1  UNL1       -0.2814
     10 H          11.1537   38.0494    9.3129 H       1  UNL1        0.1549
     11 C          13.9883   37.2078    8.7618 C.ar    1  UNL1        0.1140
     12 C          13.0669   37.3836    9.7688 C.ar    1  UNL1        0.0906
     13 C          13.3741   36.4965   10.7847 C.ar    1  UNL1        0.1364
     14 N          14.8118   36.2337    9.1878 N.ar    1  UNL1       -0.2187
     15 N          14.4603   35.8037   10.3897 N.ar    1  UNL1       -0.1641
     16 C          15.9531   35.7176    8.4516 C.3     1  UNL1        0.2733
     17 O          16.3402   34.4864    8.9824 O.3     1  UNL1       -0.3311
     18 C          18.2271   33.0457    9.1034 C.3     1  UNL1        0.0347
     19 C          17.7193   34.4352    8.7780 C.3     1  UNL1        0.1446
     20 O           9.1931   42.1245    6.7500 O.2     1  UNL1       -0.1527
     21 O           8.4953   40.6669    8.5808 O.2     1  UNL1       -0.1527
     22 S           8.7861   42.0916    8.1976 S.O2    1  UNL1        0.0660
     23 C           7.3262   43.0453    8.4168 C.ar    1  UNL1        0.1560
     24 C           6.0395   42.5906    8.6014 C.ar    1  UNL1        0.0761
     25 C           5.5879   41.1695    8.6664 C.3     1  UNL1        0.0532
     26 C           3.7981   43.6481    8.9153 C.3     1  UNL1        0.1534
     27 C           7.2450   44.4274    8.4129 C.ar    1  UNL1        0.1411
     28 N           5.2365   43.6617    8.7071 N.ar    1  UNL1       -0.2515
     29 N           5.9501   44.7702    8.5943 N.ar    1  UNL1       -0.1665
@<TRIPOS>BOND
     1    18    19    1
     2    19    17    1
     3    16    17    1
     4    16    14    1
     5    12     9    1
     6    12    13   ar
     7     1     7    1
     8     1     2    1
     9     2     3    1
    10     3     4    1
    11     4     6    1
    12     5     6    1
    13     5     1    1
    14    24    28   ar
    15    25    24    1
    16    26    28    1
    17    27    23   ar
    18    14    11   ar
    19    14    15   ar
    20     9     7   am
    21    28    29   ar
    22    22     6    1
    23    22    23    1
    24    11    12   ar
    25     7     8    2
    26    23    24   ar
    27    27    29   ar
    28    13    15   ar
    29    22    20    2
    30    22    21    2
    31     9    10    1
@<TRIPOS>MOLECULE
MolPort-002-764-926 MCULE-8940206986 PubChem-19587676
 29 31 0 0 0
SMALL
GASTEIGER

@<TRIPOS>ATOM
      1 C           9.5085   40.4201    7.5896 C.3     1  UNL1        0.0945
      2 C           9.4758   39.8047    6.1986 C.3     1  UNL1        0.0120
      3 C          10.8993   39.6119    5.7054 C.3     1  UNL1        0.0197
      4 C          11.6328   40.9549    5.6963 C.3     1  UNL1        0.0958
      5 C          10.2649   41.7509    7.5587 C.3     1  UNL1        0.1048
      6 N          11.6227   41.6198    7.0086 N.3     1  UNL1       -0.1550
      7 C           8.1241   40.6201    8.1077 C.2     1  UNL1        0.2271
      8 O           7.1462   40.3230    7.3712 O.2     1  UNL1       -0.2747
      9 N           7.9204   41.1417    9.4284 N.am    1  UNL1       -0.2814
     10 H           8.7221   41.3476    9.9614 H       1  UNL1        0.1549
     11 C           5.4477   41.4198    9.3613 C.ar    1  UNL1        0.1140
     12 C           6.6474   41.3873   10.0349 C.ar    1  UNL1        0.0906
     13 C           6.3893   41.6255   11.3729 C.ar    1  UNL1        0.1364
     14 N           4.5132   41.6752   10.2939 N.ar    1  UNL1       -0.2187
     15 N           5.0582   41.7970   11.4944 N.ar    1  UNL1       -0.1641
     16 C           3.0866   41.7892   10.0438 C.3     1  UNL1        0.2733
     17 O           2.8586   42.7083    9.0188 O.3     1  UNL1       -0.3311
     18 C           3.7393   44.7099    8.0869 C.3     1  UNL1        0.0347
     19 C           3.8675   43.6598    9.1710 C.3     1  UNL1        0.1446
     20 O          12.1934   40.9620    9.5435 O.2     1  UNL1       -0.1527
     21 O          12.7614   39.3564    7.7934 O.2     1  UNL1       -0.1527
     22 S          12.6906   40.8200    8.1311 S.O2    1  UNL1        0.0660
     23 C          14.3033   41.5075    8.0067 C.ar    1  UNL1        0.1560
     24 C          14.7167   42.5552    7.2142 C.ar    1  UNL1        0.0761
     25 C          13.8789   43.3593    6.2766 C.3     1  UNL1        0.0532
     26 C          16.8787   43.7347    6.7955 C.3     1  UNL1        0.1534
     27 C          15.4306   41.0743    8.6839 C.ar    1  UNL1        0.1411
     28 N          16.0314   42.7333    7.4216 N.ar    1  UNL1       -0.2515
     29 N          16.4706   41.8485    8.3018 N.ar    1  UNL1       -0.1665
@<TRIPOS>BOND
     1    18    19    1
     2    19    17    1
     3    16    17    1
     4    16    14    1
     5    12     9    1
     6    12    13   ar
     7     1     7    1
     8     1     2    1
     9     2     3    1
    10     3     4    1
    11     4     6    1
    12     5     6    1
    13     5     1    1
    14    24    28   ar
    15    25    24    1
    16    26    28    1
    17    27    23   ar
    18    14    11   ar
    19    14    15   ar
    20     9     7   am
    21    28    29   ar
    22    22     6    1
    23    22    23    1
    24    11    12   ar
    25     7     8    2
    26    23    24   ar
    27    27    29   ar
    28    13    15   ar
    29    22    20    2
    30    22    21    2
    31     9    10    1
