@<TRIPOS>MOLECULE
MolPort-019-893-664 67741709 CSSS00159787351 MCULE-4514229187 PubChem-56751291 ZINC000067741709
 24 25 0 0 0
SMALL
GASTEIGER

@<TRIPOS>ATOM
      1 C          13.7141   41.4801    7.6477 C.ar    1  UNL1        0.1325
      2 C          12.9378   41.7239    6.5302 C.ar    1  UNL1        0.0565
      3 C          11.6865   41.2402    6.8966 C.ar    1  UNL1        0.1230
      4 N          11.7386   40.7460    8.1516 N.ar    1  UNL1       -0.1666
      5 N          12.9710   40.9012    8.6006 N.ar    1  UNL1       -0.2394
      6 C          13.4460   40.4622    9.9097 C.3     1  UNL1        0.1093
      7 C          14.8522   39.8570    9.8124 C.3     1  UNL1        0.0418
      8 C          14.8638   38.4057    9.2951 C.3     1  UNL1        0.0741
      9 C          12.8701   38.0656   10.5598 C.3     1  UNL1        0.0741
     10 C          12.4304   39.5297   10.5875 C.3     1  UNL1        0.0418
     11 N          13.5404   37.7730    9.2965 N.3     1  UNL1       -0.2725
     12 C          13.7659   36.3370    9.2537 C.3     1  UNL1        0.0747
     13 C          14.9584   36.0093    8.3661 C.3     1  UNL1        0.0490
     14 C          15.4103   34.5719    8.5654 C.3     1  UNL1        0.1386
     15 O          14.3043   33.7263    8.6495 O.3     1  UNL1       -0.3819
     16 H          13.7535   33.9884    9.4036 H       1  UNL1        0.2104
     17 C          15.7415   43.0190    7.4501 C.2     1  UNL1        0.2262
     18 O          15.0623   43.9627    6.9593 O.2     1  UNL1       -0.2748
     19 N          15.1075   41.7800    7.8023 N.am    1  UNL1       -0.2696
     20 H          15.6794   41.0749    8.1832 H       1  UNL1        0.1562
     21 C          17.9097   43.7266    6.4090 C.3     1  UNL1        0.0091
     22 C          17.2218   43.2084    7.6613 C.3     1  UNL1        0.0692
     23 C          17.8563   41.8840    8.0419 C.3     1  UNL1        0.0091
     24 C          17.4539   44.2049    8.7811 C.3     1  UNL1        0.0091
@<TRIPOS>BOND
     1    21    22    1
     2    22    23    1
     3    22    24    1
     4    22    17    1
     5    17    19   am
     6     2     3   ar
     7     6     5    1
     8     6     7    1
     9     7     8    1
    10     8    11    1
    11    12    11    1
    12    12    13    1
    13    13    14    1
    14    14    15    1
    15     9    11    1
    16     9    10    1
    17    10     6    1
    18    19     1    1
    19     5     4   ar
    20     5     1   ar
    21    17    18    2
    22     1     2   ar
    23     3     4   ar
    24    15    16    1
    25    19    20    1
@<TRIPOS>MOLECULE
MolPort-019-893-664 67741709 CSSS00159787351 MCULE-4514229187 PubChem-56751291 ZINC000067741709
 24 25 0 0 0
SMALL
GASTEIGER

@<TRIPOS>ATOM
      1 C          13.6140   41.7878    6.9764 C.ar    1  UNL1        0.1325
      2 C          13.2186   42.5724    5.9092 C.ar    1  UNL1        0.0565
      3 C          11.8964   42.1935    5.7045 C.ar    1  UNL1        0.1230
      4 N          11.5499   41.2455    6.6008 N.ar    1  UNL1       -0.1666
      5 N          12.5965   41.0104    7.3713 N.ar    1  UNL1       -0.2394
      6 C          12.6393   40.0227    8.4460 C.3     1  UNL1        0.1093
      7 C          11.3746   39.1545    8.4486 C.3     1  UNL1        0.0418
      8 C          10.1572   39.8415    9.0963 C.3     1  UNL1        0.0741
      9 C          11.6760   40.7676   10.6854 C.3     1  UNL1        0.0741
     10 C          12.9216   40.6864    9.8024 C.3     1  UNL1        0.0418
     11 N          10.5022   41.0436    9.8627 N.3     1  UNL1       -0.2725
     12 C           9.3925   41.2918   10.7691 C.3     1  UNL1        0.0747
     13 C           9.8193   41.0627   12.2123 C.3     1  UNL1        0.0490
     14 C           8.6901   41.3899   13.1755 C.3     1  UNL1        0.1386
     15 O           7.9061   42.4245   12.6654 O.3     1  UNL1       -0.3819
     16 H           8.4538   43.2160   12.5449 H       1  UNL1        0.2104
     17 C          15.8625   42.8451    7.5627 C.2     1  UNL1        0.2262
     18 O          15.5922   43.9187    6.9570 O.2     1  UNL1       -0.2748
     19 N          14.9082   41.7730    7.5931 N.am    1  UNL1       -0.2696
     20 H          15.1648   40.9565    8.0797 H       1  UNL1        0.1562
     21 C          18.3311   42.5317    7.2562 C.3     1  UNL1        0.0091
     22 C          17.1954   42.7029    8.2518 C.3     1  UNL1        0.0692
     23 C          17.1718   41.4903    9.1631 C.3     1  UNL1        0.0091
     24 C          17.4732   43.9394    9.0854 C.3     1  UNL1        0.0091
@<TRIPOS>BOND
     1    21    22    1
     2    22    23    1
     3    22    24    1
     4    22    17    1
     5    17    19   am
     6     2     3   ar
     7     6     5    1
     8     6     7    1
     9     7     8    1
    10     8    11    1
    11    12    11    1
    12    12    13    1
    13    13    14    1
    14    14    15    1
    15     9    11    1
    16     9    10    1
    17    10     6    1
    18    19     1    1
    19     5     4   ar
    20     5     1   ar
    21    17    18    2
    22     1     2   ar
    23     3     4   ar
    24    15    16    1
    25    19    20    1
@<TRIPOS>MOLECULE
MolPort-019-893-664 67741709 CSSS00159787351 MCULE-4514229187 PubChem-56751291 ZINC000067741709
 24 25 0 0 0
SMALL
GASTEIGER

@<TRIPOS>ATOM
      1 C          12.4050   41.5572    8.4884 C.ar    1  UNL1        0.1325
      2 C          13.2994   42.1037    7.5872 C.ar    1  UNL1        0.0565
      3 C          14.5207   41.5683    7.9818 C.ar    1  UNL1        0.1230
      4 N          14.3409   40.7610    9.0485 N.ar    1  UNL1       -0.1666
      5 N          13.0538   40.7563    9.3446 N.ar    1  UNL1       -0.2394
      6 C          12.4546   40.0293   10.4603 C.3     1  UNL1        0.1093
      7 C          13.5324   39.4703   11.3977 C.3     1  UNL1        0.0418
      8 C          14.1907   38.1778   10.8780 C.3     1  UNL1        0.0741
      9 C          12.0352   37.5445   10.0765 C.3     1  UNL1        0.0741
     10 C          11.4691   38.9603    9.9642 C.3     1  UNL1        0.0418
     11 N          13.4618   37.5549    9.7679 N.3     1  UNL1       -0.2725
     12 C          13.8978   36.1689    9.7096 C.3     1  UNL1        0.0747
     13 C          14.7912   35.9398    8.4986 C.3     1  UNL1        0.0490
     14 C          15.5304   34.6162    8.6063 C.3     1  UNL1        0.1386
     15 O          14.7655   33.5905    8.0511 O.3     1  UNL1       -0.3819
     16 H          13.9246   33.5190    8.5292 H       1  UNL1        0.2104
     17 C          10.3402   42.8324    9.2808 C.2     1  UNL1        0.2262
     18 O          11.0212   43.6441    9.9665 O.2     1  UNL1       -0.2748
     19 N          10.9913   41.7907    8.5379 N.am    1  UNL1       -0.2696
     20 H          10.4171   41.1837    8.0172 H       1  UNL1        0.1562
     21 C           8.1703   42.0849   10.2900 C.3     1  UNL1        0.0091
     22 C           8.8396   42.9700    9.2514 C.3     1  UNL1        0.0692
     23 C           8.3181   42.5781    7.8818 C.3     1  UNL1        0.0091
     24 C           8.4539   44.4102    9.5311 C.3     1  UNL1        0.0091
@<TRIPOS>BOND
     1    21    22    1
     2    22    23    1
     3    22    24    1
     4    22    17    1
     5    17    19   am
     6     2     3   ar
     7     6     5    1
     8     6     7    1
     9     7     8    1
    10     8    11    1
    11    12    11    1
    12    12    13    1
    13    13    14    1
    14    14    15    1
    15     9    11    1
    16     9    10    1
    17    10     6    1
    18    19     1    1
    19     5     4   ar
    20     5     1   ar
    21    17    18    2
    22     1     2   ar
    23     3     4   ar
    24    15    16    1
    25    19    20    1
@<TRIPOS>MOLECULE
MolPort-019-893-664 67741709 CSSS00159787351 MCULE-4514229187 PubChem-56751291 ZINC000067741709
 24 25 0 0 0
SMALL
GASTEIGER

@<TRIPOS>ATOM
      1 C          14.0874   41.4676    7.9664 C.ar    1  UNL1        0.1325
      2 C          15.0214   42.2531    7.3171 C.ar    1  UNL1        0.0565
      3 C          14.2430   43.0849    6.5197 C.ar    1  UNL1        0.1230
      4 N          12.9367   42.7955    6.6983 N.ar    1  UNL1       -0.1666
      5 N          12.8524   41.8173    7.5817 N.ar    1  UNL1       -0.2394
      6 C          11.6082   41.1925    8.0221 C.3     1  UNL1        0.1093
      7 C          11.5733   39.7060    7.6453 C.3     1  UNL1        0.0418
      8 C          11.2061   39.4528    6.1705 C.3     1  UNL1        0.0741
      9 C           9.6730   41.2698    6.3649 C.3     1  UNL1        0.0741
     10 C          10.3841   41.9738    7.5209 C.3     1  UNL1        0.0418
     11 N          10.6550   40.6317    5.4936 N.3     1  UNL1       -0.2725
     12 C           9.9388   40.1440    4.3258 C.3     1  UNL1        0.0747
     13 C           9.7166   38.6412    4.4239 C.3     1  UNL1        0.0490
     14 C           9.7531   37.9917    3.0503 C.3     1  UNL1        0.1386
     15 O           9.6277   36.6076    3.1681 O.3     1  UNL1       -0.3819
     16 H          10.3623   36.2604    3.6980 H       1  UNL1        0.2104
     17 C          15.6403   40.1180    9.4778 C.2     1  UNL1        0.2262
     18 O          16.6545   40.7966    9.1558 O.2     1  UNL1       -0.2748
     19 N          14.3573   40.4229    8.9103 N.am    1  UNL1       -0.2696
     20 H          13.5966   39.8661    9.1941 H       1  UNL1        0.1562
     21 C          17.1145   39.0611   11.2085 C.3     1  UNL1        0.0091
     22 C          15.7924   38.9870   10.4625 C.3     1  UNL1        0.0692
     23 C          15.7310   37.6605    9.7291 C.3     1  UNL1        0.0091
     24 C          14.6670   39.0402   11.4781 C.3     1  UNL1        0.0091
@<TRIPOS>BOND
     1    21    22    1
     2    22    23    1
     3    22    24    1
     4    22    17    1
     5    17    19   am
     6     2     3   ar
     7     6     5    1
     8     6     7    1
     9     7     8    1
    10     8    11    1
    11    12    11    1
    12    12    13    1
    13    13    14    1
    14    14    15    1
    15     9    11    1
    16     9    10    1
    17    10     6    1
    18    19     1    1
    19     5     4   ar
    20     5     1   ar
    21    17    18    2
    22     1     2   ar
    23     3     4   ar
    24    15    16    1
    25    19    20    1
@<TRIPOS>MOLECULE
MolPort-019-893-664 67741709 CSSS00159787351 MCULE-4514229187 PubChem-56751291 ZINC000067741709
 24 25 0 0 0
SMALL
GASTEIGER

@<TRIPOS>ATOM
      1 C          12.1051   41.8166    7.9902 C.ar    1  UNL1        0.1325
      2 C          13.0078   42.5696    7.2630 C.ar    1  UNL1        0.0565
      3 C          14.1967   41.8602    7.3936 C.ar    1  UNL1        0.1230
      4 N          13.9916   40.7628    8.1522 N.ar    1  UNL1       -0.1666
      5 N          12.7188   40.7422    8.5044 N.ar    1  UNL1       -0.2394
      6 C          12.1035   39.7308    9.3593 C.3     1  UNL1        0.1093
      7 C          12.4213   39.9897   10.8375 C.3     1  UNL1        0.0418
      8 C          13.8282   39.5218   11.2562 C.3     1  UNL1        0.0741
      9 C          13.5049   37.6504    9.8130 C.3     1  UNL1        0.0741
     10 C          12.4729   38.3123    8.8994 C.3     1  UNL1        0.0418
     11 N          14.4706   38.6442   10.2720 N.3     1  UNL1       -0.2725
     12 C          15.5211   37.9272   10.9769 C.3     1  UNL1        0.0747
     13 C          16.5531   38.8995   11.5309 C.3     1  UNL1        0.0490
     14 C          17.4115   39.4790   10.4185 C.3     1  UNL1        0.1386
     15 O          18.7613   39.4014   10.7611 O.3     1  UNL1       -0.3819
     16 H          18.9183   39.9077   11.5735 H       1  UNL1        0.2104
     17 C          10.1810   42.9626    9.2158 C.2     1  UNL1        0.2262
     18 O          10.9531   43.5340   10.0343 O.2     1  UNL1       -0.2748
     19 N          10.7163   42.1087    8.1933 N.am    1  UNL1       -0.2696
     20 H          10.0737   41.6871    7.5780 H       1  UNL1        0.1562
     21 C           8.3617   44.6440    9.6016 C.3     1  UNL1        0.0091
     22 C           8.6946   43.1871    9.3247 C.3     1  UNL1        0.0692
     23 C           8.1330   42.3453   10.4549 C.3     1  UNL1        0.0091
     24 C           8.0210   42.7812    8.0275 C.3     1  UNL1        0.0091
@<TRIPOS>BOND
     1    21    22    1
     2    22    23    1
     3    22    24    1
     4    22    17    1
     5    17    19   am
     6     2     3   ar
     7     6     5    1
     8     6     7    1
     9     7     8    1
    10     8    11    1
    11    12    11    1
    12    12    13    1
    13    13    14    1
    14    14    15    1
    15     9    11    1
    16     9    10    1
    17    10     6    1
    18    19     1    1
    19     5     4   ar
    20     5     1   ar
    21    17    18    2
    22     1     2   ar
    23     3     4   ar
    24    15    16    1
    25    19    20    1
@<TRIPOS>MOLECULE
MolPort-019-893-664 67741709 CSSS00159787351 MCULE-4514229187 PubChem-56751291 ZINC000067741709
 24 25 0 0 0
SMALL
GASTEIGER

@<TRIPOS>ATOM
      1 C          12.4069   40.9681    6.8220 C.ar    1  UNL1        0.1325
      2 C          12.7472   42.1970    6.2883 C.ar    1  UNL1        0.0565
      3 C          13.8468   42.5833    7.0469 C.ar    1  UNL1        0.1230
      4 N          14.1239   41.6331    7.9646 N.ar    1  UNL1       -0.1666
      5 N          13.2487   40.6551    7.8165 N.ar    1  UNL1       -0.2394
      6 C          13.1889   39.4534    8.6439 C.3     1  UNL1        0.1093
      7 C          11.7483   38.9420    8.7716 C.3     1  UNL1        0.0418
      8 C          10.9070   39.7212    9.8006 C.3     1  UNL1        0.0741
      9 C          12.8743   39.8348   11.1446 C.3     1  UNL1        0.0741
     10 C          13.8755   39.6754   10.0001 C.3     1  UNL1        0.0418
     11 N          11.7067   40.5787   10.6819 N.3     1  UNL1       -0.2725
     12 C          10.8854   40.8565   11.8494 C.3     1  UNL1        0.0747
     13 C           9.6207   41.6026   11.4480 C.3     1  UNL1        0.0490
     14 C           8.4571   41.2342   12.3539 C.3     1  UNL1        0.1386
     15 O           7.5174   42.2647   12.3747 O.3     1  UNL1       -0.3819
     16 H           7.9324   43.0740   12.7119 H       1  UNL1        0.2104
     17 C           9.9296   40.4729    6.4545 C.2     1  UNL1        0.2262
     18 O           9.5701   41.6028    6.8866 O.2     1  UNL1       -0.2748
     19 N          11.3222   40.1271    6.4078 N.am    1  UNL1       -0.2696
     20 H          11.5524   39.2349    6.0611 H       1  UNL1        0.1562
     21 C           7.4844   40.0876    6.0564 C.3     1  UNL1        0.0091
     22 C           8.8821   39.4941    5.9893 C.3     1  UNL1        0.0692
     23 C           8.9176   38.2550    6.8638 C.3     1  UNL1        0.0091
     24 C           9.1618   39.0913    4.5539 C.3     1  UNL1        0.0091
@<TRIPOS>BOND
     1    21    22    1
     2    22    23    1
     3    22    24    1
     4    22    17    1
     5    17    19   am
     6     2     3   ar
     7     6     5    1
     8     6     7    1
     9     7     8    1
    10     8    11    1
    11    12    11    1
    12    12    13    1
    13    13    14    1
    14    14    15    1
    15     9    11    1
    16     9    10    1
    17    10     6    1
    18    19     1    1
    19     5     4   ar
    20     5     1   ar
    21    17    18    2
    22     1     2   ar
    23     3     4   ar
    24    15    16    1
    25    19    20    1
@<TRIPOS>MOLECULE
MolPort-019-893-664 67741709 CSSS00159787351 MCULE-4514229187 PubChem-56751291 ZINC000067741709
 24 25 0 0 0
SMALL
GASTEIGER

@<TRIPOS>ATOM
      1 C           7.8646   42.6931    7.1999 C.ar    1  UNL1        0.1325
      2 C           6.6018   42.9178    6.6845 C.ar    1  UNL1        0.0565
      3 C           6.1119   43.9524    7.4740 C.ar    1  UNL1        0.1230
      4 N           7.0379   44.3032    8.3914 N.ar    1  UNL1       -0.1666
      5 N           8.0993   43.5377    8.2133 N.ar    1  UNL1       -0.2394
      6 C           9.3091   43.5817    9.0299 C.3     1  UNL1        0.1093
      7 C           9.9072   42.1802    9.2067 C.3     1  UNL1        0.0418
      8 C           9.1884   41.3341   10.2750 C.3     1  UNL1        0.0741
      9 C           8.9677   43.3415   11.5445 C.3     1  UNL1        0.0741
     10 C           9.0573   44.3056   10.3613 C.3     1  UNL1        0.0418
     11 N           8.2916   42.1145   11.1343 N.3     1  UNL1       -0.2725
     12 C           8.0733   41.3236   12.3349 C.3     1  UNL1        0.0747
     13 C           9.3983   41.0045   13.0132 C.3     1  UNL1        0.0490
     14 C           9.2573   41.0251   14.5264 C.3     1  UNL1        0.1386
     15 O           8.5518   42.1588   14.9294 O.3     1  UNL1       -0.3819
     16 H           9.0308   42.9543   14.6489 H       1  UNL1        0.2104
     17 C           8.5335   40.6442    5.8317 C.2     1  UNL1        0.2262
     18 O           7.3783   40.5101    5.3417 O.2     1  UNL1       -0.2748
     19 N           8.8086   41.7117    6.7514 N.am    1  UNL1       -0.2696
     20 H           9.7252   41.7753    7.1049 H       1  UNL1        0.1562
     21 C           9.6810   38.4853    6.3873 C.3     1  UNL1        0.0091
     22 C           9.6175   39.6727    5.4405 C.3     1  UNL1        0.0692
     23 C          10.9627   40.3736    5.4619 C.3     1  UNL1        0.0091
     24 C           9.3556   39.1533    4.0396 C.3     1  UNL1        0.0091
@<TRIPOS>BOND
     1    21    22    1
     2    22    23    1
     3    22    24    1
     4    22    17    1
     5    17    19   am
     6     2     3   ar
     7     6     5    1
     8     6     7    1
     9     7     8    1
    10     8    11    1
    11    12    11    1
    12    12    13    1
    13    13    14    1
    14    14    15    1
    15     9    11    1
    16     9    10    1
    17    10     6    1
    18    19     1    1
    19     5     4   ar
    20     5     1   ar
    21    17    18    2
    22     1     2   ar
    23     3     4   ar
    24    15    16    1
    25    19    20    1
@<TRIPOS>MOLECULE
MolPort-019-893-664 67741709 CSSS00159787351 MCULE-4514229187 PubChem-56751291 ZINC000067741709
 24 25 0 0 0
SMALL
GASTEIGER

@<TRIPOS>ATOM
      1 C          10.4458   39.3943    5.4361 C.ar    1  UNL1        0.1325
      2 C          10.8873   39.4211    4.1265 C.ar    1  UNL1        0.0565
      3 C           9.7149   39.2940    3.3895 C.ar    1  UNL1        0.1230
      4 N           8.6593   39.1988    4.2254 N.ar    1  UNL1       -0.1666
      5 N           9.1123   39.2663    5.4642 N.ar    1  UNL1       -0.2394
      6 C           8.2858   39.1661    6.6639 C.3     1  UNL1        0.1093
      7 C           6.8839   39.7383    6.4180 C.3     1  UNL1        0.0418
      8 C           6.8272   41.2768    6.4787 C.3     1  UNL1        0.0741
      9 C           8.4006   41.1448    8.2667 C.3     1  UNL1        0.0741
     10 C           8.9896   39.7881    7.8795 C.3     1  UNL1        0.0418
     11 N           8.0268   41.8843    7.0650 N.3     1  UNL1       -0.2725
     12 C           7.6509   43.2245    7.4860 C.3     1  UNL1        0.0747
     13 C           6.3657   43.6608    6.7967 C.3     1  UNL1        0.0490
     14 C           5.4809   44.4570    7.7417 C.3     1  UNL1        0.1386
     15 O           6.1639   44.7294    8.9269 O.3     1  UNL1       -0.3819
     16 H           6.4105   43.8956    9.3569 H       1  UNL1        0.2104
     17 C          12.0725   40.6026    6.9888 C.2     1  UNL1        0.2262
     18 O          12.1139   41.6300    6.2570 O.2     1  UNL1       -0.2748
     19 N          11.2585   39.4811    6.6140 N.am    1  UNL1       -0.2696
     20 H          11.2583   38.7040    7.2184 H       1  UNL1        0.1562
     21 C          14.2185   41.2805    8.0940 C.3     1  UNL1        0.0091
     22 C          12.8858   40.5680    8.2573 C.3     1  UNL1        0.0692
     23 C          13.1585   39.1282    8.6494 C.3     1  UNL1        0.0091
     24 C          12.1160   41.2450    9.3755 C.3     1  UNL1        0.0091
@<TRIPOS>BOND
     1    21    22    1
     2    22    23    1
     3    22    24    1
     4    22    17    1
     5    17    19   am
     6     2     3   ar
     7     6     5    1
     8     6     7    1
     9     7     8    1
    10     8    11    1
    11    12    11    1
    12    12    13    1
    13    13    14    1
    14    14    15    1
    15     9    11    1
    16     9    10    1
    17    10     6    1
    18    19     1    1
    19     5     4   ar
    20     5     1   ar
    21    17    18    2
    22     1     2   ar
    23     3     4   ar
    24    15    16    1
    25    19    20    1
@<TRIPOS>MOLECULE
MolPort-019-893-664 67741709 CSSS00159787351 MCULE-4514229187 PubChem-56751291 ZINC000067741709
 24 25 0 0 0
SMALL
GASTEIGER

@<TRIPOS>ATOM
      1 C          14.7130   40.1120    9.2784 C.ar    1  UNL1        0.1325
      2 C          15.3148   39.4464   10.3298 C.ar    1  UNL1        0.0565
      3 C          14.4557   38.3792   10.5683 C.ar    1  UNL1        0.1230
      4 N          13.4190   38.4271    9.7052 N.ar    1  UNL1       -0.1666
      5 N          13.5870   39.4783    8.9234 N.ar    1  UNL1       -0.2394
      6 C          12.6601   39.8990    7.8764 C.3     1  UNL1        0.1093
      7 C          12.5434   41.4276    7.8239 C.3     1  UNL1        0.0418
      8 C          11.6198   42.0125    8.9095 C.3     1  UNL1        0.0741
      9 C          10.2165   40.1138    8.5695 C.3     1  UNL1        0.0741
     10 C          11.3033   39.1920    8.0157 C.3     1  UNL1        0.0418
     11 N          10.7871   41.0049    9.5751 N.3     1  UNL1       -0.2725
     12 C           9.6809   41.7202   10.1910 C.3     1  UNL1        0.0747
     13 C           9.4221   43.0325    9.4643 C.3     1  UNL1        0.0490
     14 C           9.1402   44.1564   10.4480 C.3     1  UNL1        0.1386
     15 O           8.7027   43.6335   11.6647 O.3     1  UNL1       -0.3819
     16 H           7.8866   43.1282   11.5247 H       1  UNL1        0.2104
     17 C          16.5573   41.7185    8.5469 C.2     1  UNL1        0.2262
     18 O          17.4700   41.0076    9.0513 O.2     1  UNL1       -0.2748
     19 N          15.1855   41.3055    8.6398 N.am    1  UNL1       -0.2696
     20 H          14.5105   41.8930    8.2293 H       1  UNL1        0.1562
     21 C          15.7361   43.6095    7.1201 C.3     1  UNL1        0.0091
     22 C          16.9244   43.0023    7.8478 C.3     1  UNL1        0.0692
     23 C          18.0205   42.7356    6.8336 C.3     1  UNL1        0.0091
     24 C          17.4285   44.0101    8.8634 C.3     1  UNL1        0.0091
@<TRIPOS>BOND
     1    21    22    1
     2    22    23    1
     3    22    24    1
     4    22    17    1
     5    17    19   am
     6     2     3   ar
     7     6     5    1
     8     6     7    1
     9     7     8    1
    10     8    11    1
    11    12    11    1
    12    12    13    1
    13    13    14    1
    14    14    15    1
    15     9    11    1
    16     9    10    1
    17    10     6    1
    18    19     1    1
    19     5     4   ar
    20     5     1   ar
    21    17    18    2
    22     1     2   ar
    23     3     4   ar
    24    15    16    1
    25    19    20    1
@<TRIPOS>MOLECULE
MolPort-019-893-664 67741709 CSSS00159787351 MCULE-4514229187 PubChem-56751291 ZINC000067741709
 24 25 0 0 0
SMALL
GASTEIGER

@<TRIPOS>ATOM
      1 C          13.6537   41.0717    7.7499 C.ar    1  UNL1        0.1325
      2 C          14.4366   42.1458    7.3702 C.ar    1  UNL1        0.0565
      3 C          13.7212   42.7092    6.3193 C.ar    1  UNL1        0.1230
      4 N          12.5922   42.0010    6.1052 N.ar    1  UNL1       -0.1666
      5 N          12.5576   41.0134    6.9815 N.ar    1  UNL1       -0.2394
      6 C          11.5107   39.9981    7.0569 C.3     1  UNL1        0.1093
      7 C          10.5007   40.1605    5.9139 C.3     1  UNL1        0.0418
      8 C           9.4680   41.2774    6.1584 C.3     1  UNL1        0.0741
      9 C           9.4632   40.6075    8.4477 C.3     1  UNL1        0.0741
     10 C          10.8553   39.9752    8.4462 C.3     1  UNL1        0.0418
     11 N           9.4387   41.7545    7.5452 N.3     1  UNL1       -0.2725
     12 C           8.1578   42.4177    7.7300 C.3     1  UNL1        0.0747
     13 C           7.0138   41.4279    7.5601 C.3     1  UNL1        0.0490
     14 C           5.8571   41.7639    8.4870 C.3     1  UNL1        0.1386
     15 O           4.8158   40.8535    8.3080 O.3     1  UNL1       -0.3819
     16 H           4.5038   40.8955    7.3905 H       1  UNL1        0.2104
     17 C          15.2166   39.9370    9.4195 C.2     1  UNL1        0.2262
     18 O          16.2127   40.6207    9.0548 O.2     1  UNL1       -0.2748
     19 N          13.9380   40.1347    8.7972 N.am    1  UNL1       -0.2696
     20 H          13.1915   39.5785    9.1174 H       1  UNL1        0.1562
     21 C          14.3198   39.0539   11.5879 C.3     1  UNL1        0.0091
     22 C          15.3854   38.9136   10.5131 C.3     1  UNL1        0.0692
     23 C          16.7454   39.0818   11.1636 C.3     1  UNL1        0.0091
     24 C          15.2903   37.5185    9.9252 C.3     1  UNL1        0.0091
@<TRIPOS>BOND
     1    21    22    1
     2    22    23    1
     3    22    24    1
     4    22    17    1
     5    17    19   am
     6     2     3   ar
     7     6     5    1
     8     6     7    1
     9     7     8    1
    10     8    11    1
    11    12    11    1
    12    12    13    1
    13    13    14    1
    14    14    15    1
    15     9    11    1
    16     9    10    1
    17    10     6    1
    18    19     1    1
    19     5     4   ar
    20     5     1   ar
    21    17    18    2
    22     1     2   ar
    23     3     4   ar
    24    15    16    1
    25    19    20    1
