@<TRIPOS>MOLECULE
MolPort-046-958-707 MCULE-9654830527 PubChem-110094058
 23 25 0 0 0
SMALL
GASTEIGER

@<TRIPOS>ATOM
      1 C           9.1391   41.7726    8.0424 C.ar    1  UNL1        0.0805
      2 C           9.5805   41.0863    9.1808 C.ar    1  UNL1        0.1137
      3 C          11.7846   41.0720    8.3194 C.ar    1  UNL1        0.1332
      4 C          11.3511   41.7582    7.1779 C.ar    1  UNL1        0.1522
      5 N          10.8921   40.7523    9.2926 N.ar    1  UNL1       -0.2382
      6 N          10.0366   42.0898    7.0718 N.ar    1  UNL1       -0.2317
      7 C           5.2533   43.2542    8.9242 C.3     1  UNL1        0.0721
      8 C           6.0542   44.0456    7.8939 C.3     1  UNL1        0.0178
      9 C           7.5295   43.6747    7.9989 C.3     1  UNL1        0.0088
     10 C           7.7050   42.1615    7.8732 C.3     1  UNL1        0.0579
     11 C           6.8185   41.4417    8.8910 C.3     1  UNL1        0.0780
     12 N           5.4162   41.8126    8.6876 N.3     1  UNL1       -0.2736
     13 C           5.0143   41.1307   11.0714 C.3     1  UNL1        0.0173
     14 C           4.5854   41.0231    9.6082 C.3     1  UNL1        0.0576
     15 C           3.1184   41.3857    9.4580 C.3     1  UNL1        0.0173
     16 N          12.2484   42.1213    6.1192 N.pl3   1  UNL1       -0.2809
     17 H          12.0028   41.8173    5.2156 H       1  UNL1        0.1551
     18 C          13.4623   42.8767    6.2275 C.ar    1  UNL1        0.1526
     19 C          14.7513   44.8095    5.7477 C.ar    1  UNL1        0.1210
     20 C          15.8192   44.2783    6.4719 C.ar    1  UNL1        0.1196
     21 C          14.5334   42.3483    6.9514 C.ar    1  UNL1        0.1332
     22 N          13.5980   44.0982    5.6415 N.ar    1  UNL1       -0.2258
     23 N          15.6870   43.0593    7.0579 N.ar    1  UNL1       -0.2378
@<TRIPOS>BOND
     1    13    14    1
     2    14    15    1
     3    14    12    1
     4     7    12    1
     5     7     8    1
     6     8     9    1
     7     9    10    1
     8    10    11    1
     9    10     1    1
    10    11    12    1
    11     1     6   ar
    12     2     5   ar
    13     3     4   ar
    14     4    16    1
    15    19    22   ar
    16    20    23   ar
    17    21    18   ar
    18    16    18    1
    19     1     2   ar
    20     3     5   ar
    21     4     6   ar
    22    18    22   ar
    23    19    20   ar
    24    21    23   ar
    25    16    17    1
@<TRIPOS>MOLECULE
MolPort-046-958-707 MCULE-9654830527 PubChem-110094058
 23 25 0 0 0
SMALL
GASTEIGER

@<TRIPOS>ATOM
      1 C          11.5383   41.3453    9.9385 C.ar    1  UNL1        0.0805
      2 C          12.2740   40.3836   10.6424 C.ar    1  UNL1        0.1137
      3 C          13.8561   40.3051    8.8843 C.ar    1  UNL1        0.1332
      4 C          13.1260   41.2665    8.1741 C.ar    1  UNL1        0.1522
      5 N          13.4150   39.8862   10.0992 N.ar    1  UNL1       -0.2382
      6 N          11.9843   41.7605    8.7233 N.ar    1  UNL1       -0.2317
      7 C           7.4385   41.7664   10.9812 C.3     1  UNL1        0.0721
      8 C           8.4149   41.6258   12.1457 C.3     1  UNL1        0.0178
      9 C           9.7377   41.0623   11.6382 C.3     1  UNL1        0.0088
     10 C          10.2755   41.9222   10.4946 C.3     1  UNL1        0.0579
     11 C           9.2141   42.0712    9.4031 C.3     1  UNL1        0.0780
     12 N           7.9980   42.6660    9.9623 N.3     1  UNL1       -0.2736
     13 C           5.6887   42.2172    9.0818 C.3     1  UNL1        0.0173
     14 C           7.0429   42.8934    8.8681 C.3     1  UNL1        0.0576
     15 C           6.8588   44.3788    8.6116 C.3     1  UNL1        0.0173
     16 N          13.5437   41.7453    6.8880 N.pl3   1  UNL1       -0.2809
     17 H          13.1644   41.2829    6.1059 H       1  UNL1        0.1551
     18 C          14.4509   42.8208    6.6121 C.ar    1  UNL1        0.1526
     19 C          16.4886   43.9682    7.0105 C.ar    1  UNL1        0.1210
     20 C          16.1504   44.9089    6.0369 C.ar    1  UNL1        0.1196
     21 C          14.1159   43.7644    5.6384 C.ar    1  UNL1        0.1332
     22 N          15.6328   42.9464    7.2764 N.ar    1  UNL1       -0.2258
     23 N          14.9715   44.7865    5.3721 N.ar    1  UNL1       -0.2378
@<TRIPOS>BOND
     1    13    14    1
     2    14    15    1
     3    14    12    1
     4     7    12    1
     5     7     8    1
     6     8     9    1
     7     9    10    1
     8    10    11    1
     9    10     1    1
    10    11    12    1
    11     1     6   ar
    12     2     5   ar
    13     3     4   ar
    14     4    16    1
    15    19    22   ar
    16    20    23   ar
    17    21    18   ar
    18    16    18    1
    19     1     2   ar
    20     3     5   ar
    21     4     6   ar
    22    18    22   ar
    23    19    20   ar
    24    21    23   ar
    25    16    17    1
@<TRIPOS>MOLECULE
MolPort-046-958-707 MCULE-9654830527 PubChem-110094058
 23 25 0 0 0
SMALL
GASTEIGER

@<TRIPOS>ATOM
      1 C           9.6054   41.8950    7.3620 C.ar    1  UNL1        0.0805
      2 C           9.1068   41.4301    6.1386 C.ar    1  UNL1        0.1137
      3 C          11.3157   41.0367    5.3861 C.ar    1  UNL1        0.1332
      4 C          11.8222   41.5002    6.6069 C.ar    1  UNL1        0.1522
      5 N           9.9730   41.0120    5.1798 N.ar    1  UNL1       -0.2382
      6 N          10.9498   41.9175    7.5628 N.ar    1  UNL1       -0.2317
      7 C           6.3366   42.0333   10.0765 C.3     1  UNL1        0.0721
      8 C           7.7187   41.8607   10.7004 C.3     1  UNL1        0.0178
      9 C           8.7072   41.4020    9.6338 C.3     1  UNL1        0.0088
     10 C           8.6918   42.3665    8.4481 C.3     1  UNL1        0.0579
     11 C           7.2639   42.5382    7.9267 C.3     1  UNL1        0.0780
     12 N           6.3935   43.0297    8.9974 N.3     1  UNL1       -0.2736
     13 C           3.9255   43.1433    9.4506 C.3     1  UNL1        0.0173
     14 C           5.0594   43.2849    8.4352 C.3     1  UNL1        0.0576
     15 C           5.0059   44.6481    7.7681 C.3     1  UNL1        0.0173
     16 N          13.2297   41.5488    6.8799 N.pl3   1  UNL1       -0.2809
     17 H          13.6271   40.7361    7.2684 H       1  UNL1        0.1551
     18 C          14.1234   42.6465    6.6514 C.ar    1  UNL1        0.1526
     19 C          16.1805   43.7613    7.0427 C.ar    1  UNL1        0.1210
     20 C          15.7949   44.7808    6.1714 C.ar    1  UNL1        0.1196
     21 C          13.7410   43.6688    5.7801 C.ar    1  UNL1        0.1332
     22 N          15.3376   42.7181    7.2633 N.ar    1  UNL1       -0.2258
     23 N          14.5836   44.7123    5.5591 N.ar    1  UNL1       -0.2378
@<TRIPOS>BOND
     1    13    14    1
     2    14    15    1
     3    14    12    1
     4     7    12    1
     5     7     8    1
     6     8     9    1
     7     9    10    1
     8    10    11    1
     9    10     1    1
    10    11    12    1
    11     1     6   ar
    12     2     5   ar
    13     3     4   ar
    14     4    16    1
    15    19    22   ar
    16    20    23   ar
    17    21    18   ar
    18    16    18    1
    19     1     2   ar
    20     3     5   ar
    21     4     6   ar
    22    18    22   ar
    23    19    20   ar
    24    21    23   ar
    25    16    17    1
@<TRIPOS>MOLECULE
MolPort-046-958-707 MCULE-9654830527 PubChem-110094058
 23 25 0 0 0
SMALL
GASTEIGER

@<TRIPOS>ATOM
      1 C          14.4439   40.0091    9.9476 C.ar    1  UNL1        0.0805
      2 C          15.2818   39.2292   10.7545 C.ar    1  UNL1        0.1137
      3 C          17.1755   40.3121    9.8372 C.ar    1  UNL1        0.1332
      4 C          16.3443   41.0959    9.0269 C.ar    1  UNL1        0.1522
      5 N          16.6273   39.3988   10.6805 N.ar    1  UNL1       -0.2382
      6 N          14.9980   40.9213    9.1056 N.ar    1  UNL1       -0.2317
      7 C          10.3861   39.8644    8.6883 C.3     1  UNL1        0.0721
      8 C          10.9824   38.5483    9.1798 C.3     1  UNL1        0.0178
      9 C          12.5041   38.6454    9.1805 C.3     1  UNL1        0.0088
     10 C          12.9566   39.8586    9.9928 C.3     1  UNL1        0.0579
     11 C          12.2623   41.1229    9.4833 C.3     1  UNL1        0.0780
     12 N          10.8083   40.9658    9.5653 N.3     1  UNL1       -0.2736
     13 C           8.7006   42.0994    8.8028 C.3     1  UNL1        0.0173
     14 C          10.1780   42.2340    9.1712 C.3     1  UNL1        0.0576
     15 C          10.3612   43.2866   10.2504 C.3     1  UNL1        0.0173
     16 N          16.8674   42.0749    8.1183 N.pl3   1  UNL1       -0.2809
     17 H          17.8482   42.1480    8.0728 H       1  UNL1        0.1551
     18 C          16.1242   42.9592    7.2689 C.ar    1  UNL1        0.1526
     19 C          14.1845   43.4764    6.0047 C.ar    1  UNL1        0.1210
     20 C          14.7473   44.7003    5.6402 C.ar    1  UNL1        0.1196
     21 C          16.6840   44.1849    6.9018 C.ar    1  UNL1        0.1332
     22 N          14.8843   42.6340    6.8097 N.ar    1  UNL1       -0.2258
     23 N          15.9846   45.0278    6.0968 N.ar    1  UNL1       -0.2378
@<TRIPOS>BOND
     1    13    14    1
     2    14    15    1
     3    14    12    1
     4     7    12    1
     5     7     8    1
     6     8     9    1
     7     9    10    1
     8    10    11    1
     9    10     1    1
    10    11    12    1
    11     1     6   ar
    12     2     5   ar
    13     3     4   ar
    14     4    16    1
    15    19    22   ar
    16    20    23   ar
    17    21    18   ar
    18    16    18    1
    19     1     2   ar
    20     3     5   ar
    21     4     6   ar
    22    18    22   ar
    23    19    20   ar
    24    21    23   ar
    25    16    17    1
@<TRIPOS>MOLECULE
MolPort-046-958-707 MCULE-9654830527 PubChem-110094058
 23 25 0 0 0
SMALL
GASTEIGER

@<TRIPOS>ATOM
      1 C          11.8086   41.5345    9.6381 C.ar    1  UNL1        0.0805
      2 C          11.5813   40.5975   10.6540 C.ar    1  UNL1        0.1137
      3 C          13.7622   39.7321   10.3457 C.ar    1  UNL1        0.1332
      4 C          13.9973   40.6660    9.3286 C.ar    1  UNL1        0.1522
      5 N          12.5629   39.7187   10.9839 N.ar    1  UNL1       -0.2382
      6 N          13.0105   41.5431    9.0030 N.ar    1  UNL1       -0.2317
      7 C           8.0239   43.4327    9.2567 C.3     1  UNL1        0.0721
      8 C           9.0827   44.2012   10.0426 C.3     1  UNL1        0.0178
      9 C          10.1992   43.2505   10.4604 C.3     1  UNL1        0.0088
     10 C          10.7588   42.5219    9.2387 C.3     1  UNL1        0.0579
     11 C           9.6276   41.8377    8.4691 C.3     1  UNL1        0.0780
     12 N           8.6271   42.8266    8.0611 N.3     1  UNL1       -0.2736
     13 C           6.7373   41.1727    8.0123 C.3     1  UNL1        0.0173
     14 C           7.6145   42.1538    7.2347 C.3     1  UNL1        0.0576
     15 C           6.7539   43.1682    6.5023 C.3     1  UNL1        0.0173
     16 N          15.2436   40.7261    8.6210 N.pl3   1  UNL1       -0.2809
     17 H          15.6604   39.8627    8.3972 H       1  UNL1        0.1551
     18 C          15.9513   41.9008    8.2026 C.ar    1  UNL1        0.1526
     19 C          17.7825   43.3967    8.3947 C.ar    1  UNL1        0.1210
     20 C          17.2633   44.1674    7.3537 C.ar    1  UNL1        0.1196
     21 C          15.4349   42.6748    7.1611 C.ar    1  UNL1        0.1332
     22 N          17.1161   42.2820    8.7957 N.ar    1  UNL1       -0.2258
     23 N          16.1009   43.7897    6.7596 N.ar    1  UNL1       -0.2378
@<TRIPOS>BOND
     1    13    14    1
     2    14    15    1
     3    14    12    1
     4     7    12    1
     5     7     8    1
     6     8     9    1
     7     9    10    1
     8    10    11    1
     9    10     1    1
    10    11    12    1
    11     1     6   ar
    12     2     5   ar
    13     3     4   ar
    14     4    16    1
    15    19    22   ar
    16    20    23   ar
    17    21    18   ar
    18    16    18    1
    19     1     2   ar
    20     3     5   ar
    21     4     6   ar
    22    18    22   ar
    23    19    20   ar
    24    21    23   ar
    25    16    17    1
@<TRIPOS>MOLECULE
MolPort-046-958-707 MCULE-9654830527 PubChem-110094058
 23 25 0 0 0
SMALL
GASTEIGER

@<TRIPOS>ATOM
      1 C          13.1182   39.7245    9.4064 C.ar    1  UNL1        0.0805
      2 C          13.2969   38.5806   10.1946 C.ar    1  UNL1        0.1137
      3 C          15.6274   38.9865   10.2579 C.ar    1  UNL1        0.1332
      4 C          15.4570   40.1319    9.4699 C.ar    1  UNL1        0.1522
      5 N          14.5466   38.2385   10.6017 N.ar    1  UNL1       -0.2382
      6 N          14.2033   40.4690    9.0655 N.ar    1  UNL1       -0.2317
      7 C           9.7920   42.1838    8.4263 C.3     1  UNL1        0.0721
      8 C          10.4780   41.4866    7.2547 C.3     1  UNL1        0.0178
      9 C          11.8631   41.0134    7.6817 C.3     1  UNL1        0.0088
     10 C          11.7622   40.1416    8.9332 C.3     1  UNL1        0.0579
     11 C          11.0026   40.8848   10.0335 C.3     1  UNL1        0.0780
     12 N           9.6673   41.2562    9.5597 N.3     1  UNL1       -0.2736
     13 C           9.2710   41.2756   12.0400 C.3     1  UNL1        0.0173
     14 C           8.9299   41.8700   10.6736 C.3     1  UNL1        0.0576
     15 C           9.1263   43.3758   10.6869 C.3     1  UNL1        0.0173
     16 N          16.5613   40.9587    9.0767 N.pl3   1  UNL1       -0.2809
     17 H          17.4492   40.6846    9.4019 H       1  UNL1        0.1551
     18 C          16.5188   42.1392    8.2639 C.ar    1  UNL1        0.1526
     19 C          15.4481   43.5059    6.6473 C.ar    1  UNL1        0.1210
     20 C          16.4954   44.4244    6.7288 C.ar    1  UNL1        0.1196
     21 C          17.5652   43.0608    8.3425 C.ar    1  UNL1        0.1332
     22 N          15.4827   42.3851    7.4154 N.ar    1  UNL1       -0.2258
     23 N          17.5310   44.1819    7.5746 N.ar    1  UNL1       -0.2378
@<TRIPOS>BOND
     1    13    14    1
     2    14    15    1
     3    14    12    1
     4     7    12    1
     5     7     8    1
     6     8     9    1
     7     9    10    1
     8    10    11    1
     9    10     1    1
    10    11    12    1
    11     1     6   ar
    12     2     5   ar
    13     3     4   ar
    14     4    16    1
    15    19    22   ar
    16    20    23   ar
    17    21    18   ar
    18    16    18    1
    19     1     2   ar
    20     3     5   ar
    21     4     6   ar
    22    18    22   ar
    23    19    20   ar
    24    21    23   ar
    25    16    17    1
@<TRIPOS>MOLECULE
MolPort-046-958-707 MCULE-9654830527 PubChem-110094058
 23 25 0 0 0
SMALL
GASTEIGER

@<TRIPOS>ATOM
      1 C           9.3438   40.6508    6.9864 C.ar    1  UNL1        0.0805
      2 C           9.0761   40.3705    5.6405 C.ar    1  UNL1        0.1137
      3 C          11.3731   40.6218    5.1298 C.ar    1  UNL1        0.1332
      4 C          11.6490   40.9030    6.4739 C.ar    1  UNL1        0.1522
      5 N          10.0964   40.3626    4.7441 N.ar    1  UNL1       -0.2382
      6 N          10.6231   40.9095    7.3664 N.ar    1  UNL1       -0.2317
      7 C           6.4008   42.1127    9.6834 C.3     1  UNL1        0.0721
      8 C           5.8802   41.3089    8.4951 C.3     1  UNL1        0.0178
      9 C           6.9588   41.2292    7.4202 C.3     1  UNL1        0.0088
     10 C           8.2540   40.6719    8.0103 C.3     1  UNL1        0.0579
     11 C           8.6692   41.4884    9.2355 C.3     1  UNL1        0.0780
     12 N           7.6010   41.4700   10.2375 N.3     1  UNL1       -0.2736
     13 C           8.5823   41.2361   12.5378 C.3     1  UNL1        0.0173
     14 C           8.0754   42.1707   11.4396 C.3     1  UNL1        0.0576
     15 C           9.1381   43.1954   11.0835 C.3     1  UNL1        0.0173
     16 N          12.9770   41.1841    6.9377 N.pl3   1  UNL1       -0.2809
     17 H          13.3877   40.5064    7.5219 H       1  UNL1        0.1551
     18 C          13.7742   42.3399    6.6470 C.ar    1  UNL1        0.1526
     19 C          15.8127   43.5439    6.7978 C.ar    1  UNL1        0.1210
     20 C          15.2535   44.5854    6.0564 C.ar    1  UNL1        0.1196
     21 C          13.2181   43.3844    5.9053 C.ar    1  UNL1        0.1332
     22 N          15.0620   42.4456    7.0764 N.ar    1  UNL1       -0.2258
     23 N          13.9684   44.4830    5.6263 N.ar    1  UNL1       -0.2378
@<TRIPOS>BOND
     1    13    14    1
     2    14    15    1
     3    14    12    1
     4     7    12    1
     5     7     8    1
     6     8     9    1
     7     9    10    1
     8    10    11    1
     9    10     1    1
    10    11    12    1
    11     1     6   ar
    12     2     5   ar
    13     3     4   ar
    14     4    16    1
    15    19    22   ar
    16    20    23   ar
    17    21    18   ar
    18    16    18    1
    19     1     2   ar
    20     3     5   ar
    21     4     6   ar
    22    18    22   ar
    23    19    20   ar
    24    21    23   ar
    25    16    17    1
@<TRIPOS>MOLECULE
MolPort-046-958-707 MCULE-9654830527 PubChem-110094058
 23 25 0 0 0
SMALL
GASTEIGER

@<TRIPOS>ATOM
      1 C           8.4599   43.0523    8.9727 C.ar    1  UNL1        0.0805
      2 C           8.9600   44.0911    9.7680 C.ar    1  UNL1        0.1137
      3 C          11.0857   43.0512    9.7920 C.ar    1  UNL1        0.1332
      4 C          10.5931   42.0087    8.9968 C.ar    1  UNL1        0.1522
      5 N          10.2605   44.0663   10.1588 N.ar    1  UNL1       -0.2382
      6 N           9.2902   42.0392    8.6088 N.ar    1  UNL1       -0.2317
      7 C           4.2450   43.6066    8.9616 C.3     1  UNL1        0.0721
      8 C           5.0304   44.4192    7.9358 C.3     1  UNL1        0.0178
      9 C           6.5026   44.4552    8.3311 C.3     1  UNL1        0.0088
     10 C           7.0353   43.0347    8.5179 C.3     1  UNL1        0.0579
     11 C           6.1545   42.2669    9.5052 C.3     1  UNL1        0.0780
     12 N           4.7709   42.2354    9.0253 N.3     1  UNL1       -0.2736
     13 C           3.9173   41.9396   11.3690 C.3     1  UNL1        0.0173
     14 C           3.9778   41.4012    9.9397 C.3     1  UNL1        0.0576
     15 C           2.5768   41.1845    9.3953 C.3     1  UNL1        0.0173
     16 N          11.4182   40.9118    8.5798 N.pl3   1  UNL1       -0.2809
     17 H          11.4895   40.7637    7.6092 H       1  UNL1        0.1551
     18 C          12.1508   40.0064    9.4162 C.ar    1  UNL1        0.1526
     19 C          13.9491   39.5413   10.8919 C.ar    1  UNL1        0.1210
     20 C          13.5148   38.2201   11.0063 C.ar    1  UNL1        0.1196
     21 C          11.7193   38.6833    9.5332 C.ar    1  UNL1        0.1332
     22 N          13.2587   40.4041   10.1006 N.ar    1  UNL1       -0.2258
     23 N          12.4094   37.8200   10.3245 N.ar    1  UNL1       -0.2378
@<TRIPOS>BOND
     1    13    14    1
     2    14    15    1
     3    14    12    1
     4     7    12    1
     5     7     8    1
     6     8     9    1
     7     9    10    1
     8    10    11    1
     9    10     1    1
    10    11    12    1
    11     1     6   ar
    12     2     5   ar
    13     3     4   ar
    14     4    16    1
    15    19    22   ar
    16    20    23   ar
    17    21    18   ar
    18    16    18    1
    19     1     2   ar
    20     3     5   ar
    21     4     6   ar
    22    18    22   ar
    23    19    20   ar
    24    21    23   ar
    25    16    17    1
@<TRIPOS>MOLECULE
MolPort-046-958-707 MCULE-9654830527 PubChem-110094058
 23 25 0 0 0
SMALL
GASTEIGER

@<TRIPOS>ATOM
      1 C          10.6653   40.8480    8.9510 C.ar    1  UNL1        0.0805
      2 C          11.0473   40.3907   10.2185 C.ar    1  UNL1        0.1137
      3 C          13.3243   40.6347    9.6218 C.ar    1  UNL1        0.1332
      4 C          12.9503   41.0928    8.3521 C.ar    1  UNL1        0.1522
      5 N          12.3672   40.2949   10.5241 N.ar    1  UNL1       -0.2382
      6 N          11.6273   41.1865    8.0522 N.ar    1  UNL1       -0.2317
      7 C           7.1759   41.7804    6.7088 C.3     1  UNL1        0.0721
      8 C           7.4542   40.2959    6.9286 C.3     1  UNL1        0.0178
      9 C           8.9079   40.1052    7.3477 C.3     1  UNL1        0.0088
     10 C           9.2249   40.9701    8.5674 C.3     1  UNL1        0.0579
     11 C           8.8534   42.4280    8.2908 C.3     1  UNL1        0.0780
     12 N           7.4329   42.5284    7.9478 N.3     1  UNL1       -0.2736
     13 C           5.5854   44.2115    7.6961 C.3     1  UNL1        0.0173
     14 C           7.0881   43.9493    7.7950 C.3     1  UNL1        0.0576
     15 C           7.6978   44.7764    8.9132 C.3     1  UNL1        0.0173
     16 N          13.9171   41.4653    7.3599 N.pl3   1  UNL1       -0.2809
     17 H          13.7460   41.1490    6.4435 H       1  UNL1        0.1551
     18 C          15.1044   42.2461    7.5514 C.ar    1  UNL1        0.1526
     19 C          17.3041   42.4998    8.4027 C.ar    1  UNL1        0.1210
     20 C          17.3557   43.7951    7.8862 C.ar    1  UNL1        0.1196
     21 C          15.1598   43.5429    7.0361 C.ar    1  UNL1        0.1332
     22 N          16.1814   41.7549    8.2243 N.ar    1  UNL1       -0.2258
     23 N          16.2824   44.2884    7.2141 N.ar    1  UNL1       -0.2378
@<TRIPOS>BOND
     1    13    14    1
     2    14    15    1
     3    14    12    1
     4     7    12    1
     5     7     8    1
     6     8     9    1
     7     9    10    1
     8    10    11    1
     9    10     1    1
    10    11    12    1
    11     1     6   ar
    12     2     5   ar
    13     3     4   ar
    14     4    16    1
    15    19    22   ar
    16    20    23   ar
    17    21    18   ar
    18    16    18    1
    19     1     2   ar
    20     3     5   ar
    21     4     6   ar
    22    18    22   ar
    23    19    20   ar
    24    21    23   ar
    25    16    17    1
@<TRIPOS>MOLECULE
MolPort-046-958-707 MCULE-9654830527 PubChem-110094058
 23 25 0 0 0
SMALL
GASTEIGER

@<TRIPOS>ATOM
      1 C          12.7534   40.2978    9.6738 C.ar    1  UNL1        0.0805
      2 C          12.7401   38.9511   10.0584 C.ar    1  UNL1        0.1137
      3 C          15.0852   38.8413    9.7601 C.ar    1  UNL1        0.1332
      4 C          15.1068   40.1876    9.3744 C.ar    1  UNL1        0.1522
      5 N          13.9057   38.2548   10.0926 N.ar    1  UNL1       -0.2382
      6 N          13.9366   40.8794    9.3422 N.ar    1  UNL1       -0.2317
      7 C           8.6554   41.3137    9.1774 C.3     1  UNL1        0.0721
      8 C           9.2130   41.4506   10.5915 C.3     1  UNL1        0.0178
      9 C          10.5148   40.6649   10.7057 C.3     1  UNL1        0.0088
     10 C          11.4962   41.1060    9.6200 C.3     1  UNL1        0.0579
     11 C          10.8387   41.0052    8.2425 C.3     1  UNL1        0.0780
     12 N           9.6275   41.8279    8.2021 N.3     1  UNL1       -0.2736
     13 C          10.1509   41.6454    5.7522 C.3     1  UNL1        0.0173
     14 C           9.0838   41.7929    6.8368 C.3     1  UNL1        0.0576
     15 C           8.0356   40.7025    6.7005 C.3     1  UNL1        0.0173
     16 N          16.3222   40.8584    9.0128 N.pl3   1  UNL1       -0.2809
     17 H          17.1593   40.4382    9.3161 H       1  UNL1        0.1551
     18 C          16.4563   42.0712    8.2599 C.ar    1  UNL1        0.1526
     19 C          15.6631   43.5935    6.6224 C.ar    1  UNL1        0.1210
     20 C          16.7706   44.4125    6.8459 C.ar    1  UNL1        0.1196
     21 C          17.5634   42.8935    8.4806 C.ar    1  UNL1        0.1332
     22 N          15.5305   42.4426    7.3332 N.ar    1  UNL1       -0.2258
     23 N          17.6966   44.0446    7.7702 N.ar    1  UNL1       -0.2378
@<TRIPOS>BOND
     1    13    14    1
     2    14    15    1
     3    14    12    1
     4     7    12    1
     5     7     8    1
     6     8     9    1
     7     9    10    1
     8    10    11    1
     9    10     1    1
    10    11    12    1
    11     1     6   ar
    12     2     5   ar
    13     3     4   ar
    14     4    16    1
    15    19    22   ar
    16    20    23   ar
    17    21    18   ar
    18    16    18    1
    19     1     2   ar
    20     3     5   ar
    21     4     6   ar
    22    18    22   ar
    23    19    20   ar
    24    21    23   ar
    25    16    17    1
