@<TRIPOS>MOLECULE
MolPort-003-020-506 4087324 CHEMBL1459600 CSSS03437084380 LN01391650 MCULE-9036670436 PubChem-4617706 ZINC000004087324
 26 28 0 0 0
SMALL
GASTEIGER

@<TRIPOS>ATOM
      1 C          10.1835   40.9907    8.8543 C.ar    1  UNL1        0.0898
      2 C          12.6388   40.6011    9.0634 C.ar    1  UNL1        0.0096
      3 C          11.9560   39.5051    8.5411 C.ar    1  UNL1       -0.0081
      4 C          12.6375   38.2439    8.1214 C.3     1  UNL1        0.0320
      5 C          10.5723   39.7218    8.4157 C.ar    1  UNL1        0.0843
      6 S          11.5438   41.8471    9.3428 S.2     1  UNL1       -0.0759
      7 C           8.3235   42.2470    7.6565 C.2     1  UNL1        0.2255
      8 N           8.8729   41.5654    8.7915 N.am    1  UNL1       -0.2785
      9 O           8.8309   42.0748    6.5136 O.2     1  UNL1       -0.2748
     10 H           8.3044   41.4860    9.5913 H       1  UNL1        0.1553
     11 C           7.0592   43.0516    7.8064 C.3     1  UNL1        0.0692
     12 C           5.9679   42.2347    8.4780 C.3     1  UNL1        0.0091
     13 C           7.3429   44.2779    8.6509 C.3     1  UNL1        0.0091
     14 C           6.5460   43.4974    6.4487 C.3     1  UNL1        0.0091
     15 C           9.6846   38.7738    7.7886 C.1     1  UNL1        0.1019
     16 N           8.9736   38.0113    7.2863 N.1     1  UNL1       -0.1908
     17 C          14.1172   40.7142    9.2477 C.3     1  UNL1        0.0590
     18 C          14.7036   41.6290    8.2266 C.ar    1  UNL1       -0.0141
     19 C          13.8921   42.1357    7.1860 C.ar    1  UNL1       -0.0006
     20 C          14.4253   43.0178    6.2288 C.ar    1  UNL1        0.0399
     21 C          15.7677   43.3661    6.3543 C.ar    1  UNL1        0.1764
     22 C          16.5478   42.8842    7.3554 C.ar    1  UNL1        0.1761
     23 C          17.8479   44.2548    6.0819 C.3     1  UNL1        0.4294
     24 C          16.0560   42.0098    8.3209 C.ar    1  UNL1        0.0363
     25 O          17.8234   43.3974    7.2320 O.3     1  UNL1       -0.4346
     26 O          16.5153   44.2053    5.5526 O.3     1  UNL1       -0.4346
@<TRIPOS>BOND
     1     1     8    1
     2     1     6   ar
     3    11     7    1
     4    11    12    1
     5    11    13    1
     6    11    14    1
     7     2     6   ar
     8     3     5   ar
     9     4     3    1
    10     5    15    1
    11    17     2    1
    12    17    18    1
    13    19    20   ar
    14    21    22   ar
    15    21    26    1
    16    22    25    1
    17    23    25    1
    18    23    26    1
    19    24    18   ar
    20     8     7   am
    21     7     9    2
    22     2     3   ar
    23     5     1   ar
    24    18    19   ar
    25    20    21   ar
    26    22    24   ar
    27    15    16    3
    28     8    10    1
@<TRIPOS>MOLECULE
MolPort-003-020-506 4087324 CHEMBL1459600 CSSS03437084380 LN01391650 MCULE-9036670436 PubChem-4617706 ZINC000004087324
 26 28 0 0 0
SMALL
GASTEIGER

@<TRIPOS>ATOM
      1 C           8.9118   41.6638    9.1120 C.ar    1  UNL1        0.0898
      2 C          11.1442   40.8082    8.3991 C.ar    1  UNL1        0.0096
      3 C          11.0167   40.9109    9.7824 C.ar    1  UNL1       -0.0081
      4 C          12.0988   40.5150   10.7329 C.3     1  UNL1        0.0320
      5 C           9.7578   41.3871   10.1896 C.ar    1  UNL1        0.0843
      6 S           9.6976   41.2753    7.6789 S.2     1  UNL1       -0.0759
      7 C           6.5270   41.4733    9.9775 C.2     1  UNL1        0.2255
      8 N           7.5429   42.0819    9.1701 N.am    1  UNL1       -0.2785
      9 O           6.8536   40.7506   10.9595 O.2     1  UNL1       -0.2748
     10 H           7.2790   42.8481    8.6111 H       1  UNL1        0.1553
     11 C           5.0789   41.8119    9.7395 C.3     1  UNL1        0.0692
     12 C           4.5909   41.2301    8.4231 C.3     1  UNL1        0.0091
     13 C           4.2397   41.2440   10.8669 C.3     1  UNL1        0.0091
     14 C           4.8836   43.3168    9.6908 C.3     1  UNL1        0.0091
     15 C           9.3582   41.4604   11.5735 C.1     1  UNL1        0.1019
     16 N           9.0356   41.5206   12.6832 N.1     1  UNL1       -0.1908
     17 C          12.3239   40.2670    7.6591 C.3     1  UNL1        0.0590
     18 C          13.3267   41.3430    7.4139 C.ar    1  UNL1       -0.0141
     19 C          14.6127   41.2527    7.9938 C.ar    1  UNL1       -0.0006
     20 C          15.5768   42.2483    7.7529 C.ar    1  UNL1        0.0399
     21 C          15.2123   43.3083    6.9267 C.ar    1  UNL1        0.1764
     22 C          13.9794   43.3948    6.3651 C.ar    1  UNL1        0.1761
     23 C          15.1647   45.2174    5.6839 C.3     1  UNL1        0.4294
     24 C          12.9993   42.4295    6.5799 C.ar    1  UNL1        0.0363
     25 O          13.9025   44.5406    5.5990 O.3     1  UNL1       -0.4346
     26 O          15.9702   44.3959    6.5411 O.3     1  UNL1       -0.4346
@<TRIPOS>BOND
     1     1     8    1
     2     1     6   ar
     3    11     7    1
     4    11    12    1
     5    11    13    1
     6    11    14    1
     7     2     6   ar
     8     3     5   ar
     9     4     3    1
    10     5    15    1
    11    17     2    1
    12    17    18    1
    13    19    20   ar
    14    21    22   ar
    15    21    26    1
    16    22    25    1
    17    23    25    1
    18    23    26    1
    19    24    18   ar
    20     8     7   am
    21     7     9    2
    22     2     3   ar
    23     5     1   ar
    24    18    19   ar
    25    20    21   ar
    26    22    24   ar
    27    15    16    3
    28     8    10    1
@<TRIPOS>MOLECULE
MolPort-003-020-506 4087324 CHEMBL1459600 CSSS03437084380 LN01391650 MCULE-9036670436 PubChem-4617706 ZINC000004087324
 26 28 0 0 0
SMALL
GASTEIGER

@<TRIPOS>ATOM
      1 C          10.2050   42.0545    9.3990 C.ar    1  UNL1        0.0898
      2 C          12.3286   40.7917    9.0531 C.ar    1  UNL1        0.0096
      3 C          11.8100   40.6436   10.3373 C.ar    1  UNL1       -0.0081
      4 C          12.4492   39.7878   11.3815 C.3     1  UNL1        0.0320
      5 C          10.6096   41.3487   10.5356 C.ar    1  UNL1        0.0843
      6 S          11.2943   41.7662    8.1530 S.2     1  UNL1       -0.0759
      7 C           7.8420   42.3590    8.5066 C.2     1  UNL1        0.2255
      8 N           8.9966   42.8049    9.2295 N.am    1  UNL1       -0.2785
      9 O           7.6840   41.1290    8.2714 O.2     1  UNL1       -0.2748
     10 H           8.9560   43.6977    9.6423 H       1  UNL1        0.1553
     11 C           6.7540   43.3394    8.1556 C.3     1  UNL1        0.0692
     12 C           6.5898   43.4575    6.6494 C.3     1  UNL1        0.0091
     13 C           5.4436   42.8697    8.7556 C.3     1  UNL1        0.0091
     14 C           7.0799   44.7174    8.7036 C.3     1  UNL1        0.0091
     15 C           9.8315   41.2461   11.7457 C.1     1  UNL1        0.1019
     16 N           9.2083   41.1657   12.7174 N.1     1  UNL1       -0.1908
     17 C          13.5434   40.1138    8.5080 C.3     1  UNL1        0.0590
     18 C          14.6243   41.1072    8.2468 C.ar    1  UNL1       -0.0141
     19 C          15.8336   41.0402    8.9757 C.ar    1  UNL1       -0.0006
     20 C          16.8712   41.9560    8.7244 C.ar    1  UNL1        0.0399
     21 C          16.6566   42.9142    7.7370 C.ar    1  UNL1        0.1764
     22 C          15.4978   42.9776    7.0326 C.ar    1  UNL1        0.1761
     23 C          16.8479   44.6467    6.2697 C.3     1  UNL1        0.4294
     24 C          14.4487   42.0890    7.2527 C.ar    1  UNL1        0.0363
     25 O          15.5668   44.0168    6.1266 O.3     1  UNL1       -0.4346
     26 O          17.5102   43.9109    7.3081 O.3     1  UNL1       -0.4346
@<TRIPOS>BOND
     1     1     8    1
     2     1     6   ar
     3    11     7    1
     4    11    12    1
     5    11    13    1
     6    11    14    1
     7     2     6   ar
     8     3     5   ar
     9     4     3    1
    10     5    15    1
    11    17     2    1
    12    17    18    1
    13    19    20   ar
    14    21    22   ar
    15    21    26    1
    16    22    25    1
    17    23    25    1
    18    23    26    1
    19    24    18   ar
    20     8     7   am
    21     7     9    2
    22     2     3   ar
    23     5     1   ar
    24    18    19   ar
    25    20    21   ar
    26    22    24   ar
    27    15    16    3
    28     8    10    1
@<TRIPOS>MOLECULE
MolPort-003-020-506 4087324 CHEMBL1459600 CSSS03437084380 LN01391650 MCULE-9036670436 PubChem-4617706 ZINC000004087324
 26 28 0 0 0
SMALL
GASTEIGER

@<TRIPOS>ATOM
      1 C           8.7305   41.0500    9.5778 C.ar    1  UNL1        0.0898
      2 C          10.8508   40.4806    8.3931 C.ar    1  UNL1        0.0096
      3 C          11.0281   40.6829    9.7598 C.ar    1  UNL1       -0.0081
      4 C          12.3494   40.5382   10.4412 C.3     1  UNL1        0.0320
      5 C           9.8346   40.9983   10.4332 C.ar    1  UNL1        0.0843
      6 S           9.2208   40.6607    8.0188 S.2     1  UNL1       -0.0759
      7 C           6.3042   41.5841    9.0292 C.2     1  UNL1        0.2255
      8 N           7.3613   41.2613    9.9419 N.am    1  UNL1       -0.2785
      9 O           6.4464   41.3545    7.7962 O.2     1  UNL1       -0.2748
     10 H           7.1277   41.1782   10.8947 H       1  UNL1        0.1553
     11 C           4.9778   42.0620    9.5589 C.3     1  UNL1        0.0692
     12 C           4.7342   43.5162    9.1909 C.3     1  UNL1        0.0091
     13 C           3.8680   41.2150    8.9686 C.3     1  UNL1        0.0091
     14 C           4.9338   41.9451   11.0722 C.3     1  UNL1        0.0091
     15 C           9.7559   41.1308   11.8672 C.1     1  UNL1        0.1019
     16 N           9.6911   41.2353   13.0179 N.1     1  UNL1       -0.1908
     17 C          11.9031   40.0604    7.4192 C.3     1  UNL1        0.0590
     18 C          12.9305   41.1299    7.2647 C.ar    1  UNL1       -0.0141
     19 C          14.1632   41.0265    7.9487 C.ar    1  UNL1       -0.0006
     20 C          15.1512   42.0159    7.7948 C.ar    1  UNL1        0.0399
     21 C          14.8643   43.0832    6.9477 C.ar    1  UNL1        0.1764
     22 C          13.6830   43.1823    6.2863 C.ar    1  UNL1        0.1761
     23 C          14.9339   44.9994    5.7171 C.3     1  UNL1        0.4294
     24 C          12.6814   42.2234    6.4131 C.ar    1  UNL1        0.0363
     25 O          13.6782   44.3329    5.5236 O.3     1  UNL1       -0.4346
     26 O          15.6595   44.1670    6.6331 O.3     1  UNL1       -0.4346
@<TRIPOS>BOND
     1     1     8    1
     2     1     6   ar
     3    11     7    1
     4    11    12    1
     5    11    13    1
     6    11    14    1
     7     2     6   ar
     8     3     5   ar
     9     4     3    1
    10     5    15    1
    11    17     2    1
    12    17    18    1
    13    19    20   ar
    14    21    22   ar
    15    21    26    1
    16    22    25    1
    17    23    25    1
    18    23    26    1
    19    24    18   ar
    20     8     7   am
    21     7     9    2
    22     2     3   ar
    23     5     1   ar
    24    18    19   ar
    25    20    21   ar
    26    22    24   ar
    27    15    16    3
    28     8    10    1
@<TRIPOS>MOLECULE
MolPort-003-020-506 4087324 CHEMBL1459600 CSSS03437084380 LN01391650 MCULE-9036670436 PubChem-4617706 ZINC000004087324
 26 28 0 0 0
SMALL
GASTEIGER

@<TRIPOS>ATOM
      1 C          10.0947   42.1575    9.3822 C.ar    1  UNL1        0.0898
      2 C          12.2354   40.9951    8.8434 C.ar    1  UNL1        0.0096
      3 C          11.8251   40.7982   10.1599 C.ar    1  UNL1       -0.0081
      4 C          12.5788   39.9494   11.1308 C.3     1  UNL1        0.0320
      5 C          10.6157   41.4466   10.4670 C.ar    1  UNL1        0.0843
      6 S          11.0946   41.9425    8.0494 S.2     1  UNL1       -0.0759
      7 C           7.7935   42.5939    8.3888 C.2     1  UNL1        0.2255
      8 N           8.8468   42.8584    9.3243 N.am    1  UNL1       -0.2785
      9 O           7.7552   41.4880    7.7816 O.2     1  UNL1       -0.2748
     10 H           8.7009   43.5790    9.9791 H       1  UNL1        0.1553
     11 C           6.6609   43.5752    8.2397 C.3     1  UNL1        0.0692
     12 C           5.4254   43.1015    8.9871 C.3     1  UNL1        0.0091
     13 C           7.0854   44.9191    8.7978 C.3     1  UNL1        0.0091
     14 C           6.2905   43.7449    6.7770 C.3     1  UNL1        0.0091
     15 C           9.9393   41.2854   11.7306 C.1     1  UNL1        0.1019
     16 N           9.3948   41.1576   12.7437 N.1     1  UNL1       -0.1908
     17 C          13.4310   40.3818    8.1903 C.3     1  UNL1        0.0590
     18 C          14.4001   41.4366    7.7761 C.ar    1  UNL1       -0.0141
     19 C          14.0693   42.3241    6.7267 C.ar    1  UNL1       -0.0006
     20 C          14.9636   43.3388    6.3403 C.ar    1  UNL1        0.0399
     21 C          16.1692   43.4293    7.0312 C.ar    1  UNL1        0.1764
     22 C          16.4870   42.5810    8.0423 C.ar    1  UNL1        0.1761
     23 C          18.2302   44.0273    7.7967 C.3     1  UNL1        0.4294
     24 C          15.6282   41.5649    8.4531 C.ar    1  UNL1        0.0363
     25 O          17.7328   42.9057    8.5404 O.3     1  UNL1       -0.4346
     26 O          17.2001   44.3283    6.8444 O.3     1  UNL1       -0.4346
@<TRIPOS>BOND
     1     1     8    1
     2     1     6   ar
     3    11     7    1
     4    11    12    1
     5    11    13    1
     6    11    14    1
     7     2     6   ar
     8     3     5   ar
     9     4     3    1
    10     5    15    1
    11    17     2    1
    12    17    18    1
    13    19    20   ar
    14    21    22   ar
    15    21    26    1
    16    22    25    1
    17    23    25    1
    18    23    26    1
    19    24    18   ar
    20     8     7   am
    21     7     9    2
    22     2     3   ar
    23     5     1   ar
    24    18    19   ar
    25    20    21   ar
    26    22    24   ar
    27    15    16    3
    28     8    10    1
@<TRIPOS>MOLECULE
MolPort-003-020-506 4087324 CHEMBL1459600 CSSS03437084380 LN01391650 MCULE-9036670436 PubChem-4617706 ZINC000004087324
 26 28 0 0 0
SMALL
GASTEIGER

@<TRIPOS>ATOM
      1 C           8.0244   41.5835    9.3061 C.ar    1  UNL1        0.0898
      2 C          10.1399   40.7779    8.2576 C.ar    1  UNL1        0.0096
      3 C          10.3162   41.9254    9.0273 C.ar    1  UNL1       -0.0081
      4 C          11.6448   42.5786    9.2254 C.3     1  UNL1        0.0320
      5 C           9.1276   42.3801    9.6255 C.ar    1  UNL1        0.0843
      6 S           8.5272   40.3064    8.3374 S.2     1  UNL1       -0.0759
      7 C           5.4954   41.5080    9.0392 C.2     1  UNL1        0.2255
      8 N           6.6885   41.7124    9.8069 N.am    1  UNL1       -0.2785
      9 O           5.5462   40.8541    7.9607 O.2     1  UNL1       -0.2748
     10 H           6.5813   41.9611   10.7534 H       1  UNL1        0.1553
     11 C           4.1654   41.9493    9.5911 C.3     1  UNL1        0.0692
     12 C           3.0658   40.9698    9.2158 C.3     1  UNL1        0.0091
     13 C           4.2526   42.0323   11.1021 C.3     1  UNL1        0.0091
     14 C           3.7871   43.3145    9.0445 C.3     1  UNL1        0.0091
     15 C           9.0913   43.4778   10.5604 C.1     1  UNL1        0.1019
     16 N           9.0600   44.3593   11.3095 N.1     1  UNL1       -0.1908
     17 C          11.2143   40.0101    7.5587 C.3     1  UNL1        0.0590
     18 C          12.3926   40.8838    7.2912 C.ar    1  UNL1       -0.0141
     19 C          12.3277   41.8614    6.2723 C.ar    1  UNL1       -0.0006
     20 C          13.4229   42.7084    6.0237 C.ar    1  UNL1        0.0399
     21 C          14.5548   42.5440    6.8179 C.ar    1  UNL1        0.1764
     22 C          14.6178   41.6087    7.7998 C.ar    1  UNL1        0.1761
     23 C          16.6090   42.7160    7.7885 C.3     1  UNL1        0.4294
     24 C          13.5548   40.7529    8.0757 C.ar    1  UNL1        0.0363
     25 O          15.8495   41.6751    8.4196 O.3     1  UNL1       -0.4346
     26 O          15.7442   43.2434    6.7724 O.3     1  UNL1       -0.4346
@<TRIPOS>BOND
     1     1     8    1
     2     1     6   ar
     3    11     7    1
     4    11    12    1
     5    11    13    1
     6    11    14    1
     7     2     6   ar
     8     3     5   ar
     9     4     3    1
    10     5    15    1
    11    17     2    1
    12    17    18    1
    13    19    20   ar
    14    21    22   ar
    15    21    26    1
    16    22    25    1
    17    23    25    1
    18    23    26    1
    19    24    18   ar
    20     8     7   am
    21     7     9    2
    22     2     3   ar
    23     5     1   ar
    24    18    19   ar
    25    20    21   ar
    26    22    24   ar
    27    15    16    3
    28     8    10    1
@<TRIPOS>MOLECULE
MolPort-003-020-506 4087324 CHEMBL1459600 CSSS03437084380 LN01391650 MCULE-9036670436 PubChem-4617706 ZINC000004087324
 26 28 0 0 0
SMALL
GASTEIGER

@<TRIPOS>ATOM
      1 C           8.9597   41.3116    8.3636 C.ar    1  UNL1        0.0898
      2 C          11.4090   40.8509    8.4746 C.ar    1  UNL1        0.0096
      3 C          10.7652   40.1347    7.4681 C.ar    1  UNL1       -0.0081
      4 C          11.4823   39.2143    6.5354 C.3     1  UNL1        0.0320
      5 C           9.3852   40.3954    7.3975 C.ar    1  UNL1        0.0843
      6 S          10.2851   41.8270    9.2579 S.2     1  UNL1       -0.0759
      7 C           6.8311   41.7302    9.6929 C.2     1  UNL1        0.2255
      8 N           7.6448   41.8582    8.5198 N.am    1  UNL1       -0.2785
      9 O           7.3631   41.4280   10.7970 O.2     1  UNL1       -0.2748
     10 H           7.2703   42.3617    7.7613 H       1  UNL1        0.1553
     11 C           5.3711   42.0947    9.6345 C.3     1  UNL1        0.0692
     12 C           5.1734   43.4581    8.9931 C.3     1  UNL1        0.0091
     13 C           4.6277   41.0568    8.8174 C.3     1  UNL1        0.0091
     14 C           4.7759   42.1401   11.0307 C.3     1  UNL1        0.0091
     15 C           8.5391   39.8608    6.3591 C.1     1  UNL1        0.1019
     16 N           7.8592   39.4303    5.5275 N.1     1  UNL1       -0.1908
     17 C          12.8763   40.8526    8.7564 C.3     1  UNL1        0.0590
     18 C          13.5889   41.7638    7.8156 C.ar    1  UNL1       -0.0141
     19 C          12.8589   42.4790    6.8390 C.ar    1  UNL1       -0.0006
     20 C          13.5143   43.3597    5.9596 C.ar    1  UNL1        0.0399
     21 C          14.8935   43.4949    6.0961 C.ar    1  UNL1        0.1764
     22 C          15.5960   42.8125    7.0361 C.ar    1  UNL1        0.1761
     23 C          17.0812   44.0919    5.8750 C.3     1  UNL1        0.4294
     24 C          14.9828   41.9325    7.9239 C.ar    1  UNL1        0.0363
     25 O          16.9329   43.1431    6.9410 O.3     1  UNL1       -0.4346
     26 O          15.7549   44.2875    5.3641 O.3     1  UNL1       -0.4346
@<TRIPOS>BOND
     1     1     8    1
     2     1     6   ar
     3    11     7    1
     4    11    12    1
     5    11    13    1
     6    11    14    1
     7     2     6   ar
     8     3     5   ar
     9     4     3    1
    10     5    15    1
    11    17     2    1
    12    17    18    1
    13    19    20   ar
    14    21    22   ar
    15    21    26    1
    16    22    25    1
    17    23    25    1
    18    23    26    1
    19    24    18   ar
    20     8     7   am
    21     7     9    2
    22     2     3   ar
    23     5     1   ar
    24    18    19   ar
    25    20    21   ar
    26    22    24   ar
    27    15    16    3
    28     8    10    1
@<TRIPOS>MOLECULE
MolPort-003-020-506 4087324 CHEMBL1459600 CSSS03437084380 LN01391650 MCULE-9036670436 PubChem-4617706 ZINC000004087324
 26 28 0 0 0
SMALL
GASTEIGER

@<TRIPOS>ATOM
      1 C           7.4543   41.3904    9.2305 C.ar    1  UNL1        0.0898
      2 C           9.6791   41.7414    8.1577 C.ar    1  UNL1        0.0096
      3 C           9.6698   42.0684    9.5117 C.ar    1  UNL1       -0.0081
      4 C          10.8807   42.5468   10.2437 C.3     1  UNL1        0.0320
      5 C           8.4194   41.8666   10.1224 C.ar    1  UNL1        0.0843
      6 S           8.1568   41.1760    7.7195 S.2     1  UNL1       -0.0759
      7 C           5.0295   41.9075    9.8012 C.2     1  UNL1        0.2255
      8 N           6.1092   41.0031    9.5346 N.am    1  UNL1       -0.2785
      9 O           5.1145   43.1128    9.4363 O.2     1  UNL1       -0.2748
     10 H           5.9104   40.0393    9.5628 H       1  UNL1        0.1553
     11 C           3.7434   41.3860   10.3861 C.3     1  UNL1        0.0692
     12 C           3.9690   40.0746   11.1202 C.3     1  UNL1        0.0091
     13 C           3.1875   42.4040   11.3619 C.3     1  UNL1        0.0091
     14 C           2.7191   41.1432    9.2918 C.3     1  UNL1        0.0091
     15 C           8.2057   42.0229   11.5402 C.1     1  UNL1        0.1019
     16 N           8.0353   42.1506   12.6777 N.1     1  UNL1       -0.1908
     17 C          10.8657   41.7727    7.2503 C.3     1  UNL1        0.0590
     18 C          11.9844   40.9707    7.8236 C.ar    1  UNL1       -0.0141
     19 C          11.8161   39.5848    8.0453 C.ar    1  UNL1       -0.0006
     20 C          12.8699   38.8109    8.5640 C.ar    1  UNL1        0.0399
     21 C          14.0690   39.4624    8.8409 C.ar    1  UNL1        0.1764
     22 C          14.2344   40.7924    8.6245 C.ar    1  UNL1        0.1761
     23 C          16.1978   39.9911    9.4574 C.3     1  UNL1        0.4294
     24 C          13.2152   41.5910    8.1125 C.ar    1  UNL1        0.0363
     25 O          15.5150   41.1610    8.9847 O.3     1  UNL1       -0.4346
     26 O          15.2377   38.9306    9.3481 O.3     1  UNL1       -0.4346
@<TRIPOS>BOND
     1     1     8    1
     2     1     6   ar
     3    11     7    1
     4    11    12    1
     5    11    13    1
     6    11    14    1
     7     2     6   ar
     8     3     5   ar
     9     4     3    1
    10     5    15    1
    11    17     2    1
    12    17    18    1
    13    19    20   ar
    14    21    22   ar
    15    21    26    1
    16    22    25    1
    17    23    25    1
    18    23    26    1
    19    24    18   ar
    20     8     7   am
    21     7     9    2
    22     2     3   ar
    23     5     1   ar
    24    18    19   ar
    25    20    21   ar
    26    22    24   ar
    27    15    16    3
    28     8    10    1
@<TRIPOS>MOLECULE
MolPort-003-020-506 4087324 CHEMBL1459600 CSSS03437084380 LN01391650 MCULE-9036670436 PubChem-4617706 ZINC000004087324
 26 28 0 0 0
SMALL
GASTEIGER

@<TRIPOS>ATOM
      1 C          13.6412   41.6737    7.7305 C.ar    1  UNL1        0.0898
      2 C          11.5204   40.6546    8.5598 C.ar    1  UNL1        0.0096
      3 C          12.6571   40.0871    9.1309 C.ar    1  UNL1       -0.0081
      4 C          12.5999   39.0039   10.1578 C.3     1  UNL1        0.0320
      5 C          13.8551   40.6622    8.6711 C.ar    1  UNL1        0.0843
      6 S          11.9888   41.8840    7.5116 S.2     1  UNL1       -0.0759
      7 C          16.0015   42.6011    7.5268 C.2     1  UNL1        0.2255
      8 N          14.6284   42.5164    7.1245 N.am    1  UNL1       -0.2785
      9 O          16.5134   41.6744    8.2143 O.2     1  UNL1       -0.2748
     10 H          14.3410   43.0824    6.3719 H       1  UNL1        0.1553
     11 C          16.8652   43.7214    7.0100 C.3     1  UNL1        0.0692
     12 C          17.6978   44.3293    8.1266 C.3     1  UNL1        0.0091
     13 C          17.7966   43.1841    5.9417 C.3     1  UNL1        0.0091
     14 C          16.0090   44.8215    6.4082 C.3     1  UNL1        0.0091
     15 C          15.1473   40.3178    9.2113 C.1     1  UNL1        0.1019
     16 N          16.1837   40.0391    9.6440 N.1     1  UNL1       -0.1908
     17 C          10.1033   40.3189    8.8936 C.3     1  UNL1        0.0590
     18 C           9.2723   41.5555    8.9524 C.ar    1  UNL1       -0.0141
     19 C           9.6404   42.6109    9.8178 C.ar    1  UNL1       -0.0006
     20 C           8.8793   43.7929    9.8673 C.ar    1  UNL1        0.0399
     21 C           7.7663   43.8751    9.0346 C.ar    1  UNL1        0.1764
     22 C           7.4135   42.8646    8.1996 C.ar    1  UNL1        0.1761
     23 C           5.8941   44.5389    7.9185 C.3     1  UNL1        0.4294
     24 C           8.1415   41.6803    8.1225 C.ar    1  UNL1        0.0363
     25 O           6.2793   43.2222    7.4985 O.3     1  UNL1       -0.4346
     26 O           6.8706   44.9170    8.8993 O.3     1  UNL1       -0.4346
@<TRIPOS>BOND
     1     1     8    1
     2     1     6   ar
     3    11     7    1
     4    11    12    1
     5    11    13    1
     6    11    14    1
     7     2     6   ar
     8     3     5   ar
     9     4     3    1
    10     5    15    1
    11    17     2    1
    12    17    18    1
    13    19    20   ar
    14    21    22   ar
    15    21    26    1
    16    22    25    1
    17    23    25    1
    18    23    26    1
    19    24    18   ar
    20     8     7   am
    21     7     9    2
    22     2     3   ar
    23     5     1   ar
    24    18    19   ar
    25    20    21   ar
    26    22    24   ar
    27    15    16    3
    28     8    10    1
@<TRIPOS>MOLECULE
MolPort-003-020-506 4087324 CHEMBL1459600 CSSS03437084380 LN01391650 MCULE-9036670436 PubChem-4617706 ZINC000004087324
 26 28 0 0 0
SMALL
GASTEIGER

@<TRIPOS>ATOM
      1 C           7.5430   41.6047    9.4482 C.ar    1  UNL1        0.0898
      2 C           9.5587   40.3319    8.7127 C.ar    1  UNL1        0.0096
      3 C           9.6448   40.7741   10.0308 C.ar    1  UNL1       -0.0081
      4 C          10.8132   40.4820   10.9145 C.3     1  UNL1        0.0320
      5 C           8.5084   41.4870   10.4521 C.ar    1  UNL1        0.0843
      6 S           8.0716   40.7928    8.0758 S.2     1  UNL1       -0.0759
      7 C           5.1099   41.5786   10.1913 C.2     1  UNL1        0.2255
      8 N           6.2418   42.1928    9.5619 N.am    1  UNL1       -0.2785
      9 O           5.2812   40.6244   10.9997 O.2     1  UNL1       -0.2748
     10 H           6.1148   43.0901    9.1772 H       1  UNL1        0.1553
     11 C           3.7361   42.1641    9.9968 C.3     1  UNL1        0.0692
     12 C           3.1097   42.5427   11.3286 C.3     1  UNL1        0.0091
     13 C           3.8383   43.4057    9.1333 C.3     1  UNL1        0.0091
     14 C           2.8211   41.1636    9.3132 C.3     1  UNL1        0.0091
     15 C           8.3239   41.9352   11.8106 C.1     1  UNL1        0.1019
     16 N           8.1754   42.2924   12.9012 N.1     1  UNL1       -0.1908
     17 C          10.5626   39.4875    7.9975 C.3     1  UNL1        0.0590
     18 C          11.8889   39.5646    8.6746 C.ar    1  UNL1       -0.0141
     19 C          12.7418   40.6649    8.4297 C.ar    1  UNL1       -0.0006
     20 C          13.9859   40.7631    9.0786 C.ar    1  UNL1        0.0399
     21 C          14.3312   39.7439    9.9624 C.ar    1  UNL1        0.1764
     22 C          13.5117   38.6885   10.2025 C.ar    1  UNL1        0.1761
     23 C          15.3804   38.3996   11.4735 C.3     1  UNL1        0.4294
     24 C          12.2734   38.5567    9.5798 C.ar    1  UNL1        0.0363
     25 O          14.1073   37.8426   11.1165 O.3     1  UNL1       -0.4346
     26 O          15.4820   39.6123   10.7136 O.3     1  UNL1       -0.4346
@<TRIPOS>BOND
     1     1     8    1
     2     1     6   ar
     3    11     7    1
     4    11    12    1
     5    11    13    1
     6    11    14    1
     7     2     6   ar
     8     3     5   ar
     9     4     3    1
    10     5    15    1
    11    17     2    1
    12    17    18    1
    13    19    20   ar
    14    21    22   ar
    15    21    26    1
    16    22    25    1
    17    23    25    1
    18    23    26    1
    19    24    18   ar
    20     8     7   am
    21     7     9    2
    22     2     3   ar
    23     5     1   ar
    24    18    19   ar
    25    20    21   ar
    26    22    24   ar
    27    15    16    3
    28     8    10    1
