@<TRIPOS>MOLECULE
MolPort-047-071-969 PubChem-132767160
 34 37 0 0 0
SMALL
GASTEIGER

@<TRIPOS>ATOM
      1 C          13.5468   39.2985   10.2441 C.3     1  UNL1        0.0602
      2 C          13.0083   37.9173    9.8638 C.3     1  UNL1        0.0094
      3 C          11.4813   37.9223    9.8637 C.3     1  UNL1        0.0220
      4 C          10.9686   38.9830    8.8954 C.3     1  UNL1        0.0937
      5 C          13.0026   40.3695    9.2979 C.3     1  UNL1        0.0996
      6 C          10.7457   41.4631    9.4258 C.2     1  UNL1        0.2492
      7 N          11.5460   40.2789    9.2447 N.am    1  UNL1       -0.2757
      8 O          11.2872   42.5955    9.3164 O.2     1  UNL1       -0.2699
      9 C          17.1185   40.3843    9.6478 C.ar    1  UNL1        0.0517
     10 C          15.7217   40.3750    9.6576 C.ar    1  UNL1        0.0294
     11 C          15.0393   39.3025   10.2383 C.ar    1  UNL1        0.0611
     12 C          17.0983   38.2562   10.7949 C.ar    1  UNL1        0.0602
     13 C          17.8114   39.3115   10.2237 C.ar    1  UNL1        0.0294
     14 C          17.8259   37.1148   11.4074 C.3     1  UNL1        0.0521
     15 N          15.7390   38.2723   10.7909 N.ar    1  UNL1       -0.2538
     16 N          17.7963   41.4963    9.0460 N.pl3   1  UNL1       -0.2979
     17 H          18.7323   41.6358    9.3174 H       1  UNL1        0.1536
     18 C          14.0284   43.1350    6.3721 C.3     1  UNL1        0.0521
     19 C          15.4516   43.2428    6.7854 C.ar    1  UNL1        0.0608
     20 C          17.2646   42.4274    8.0940 C.ar    1  UNL1        0.1317
     21 C          18.1020   43.4187    7.5753 C.ar    1  UNL1        0.0344
     22 C          17.5948   44.3305    6.6480 C.ar    1  UNL1        0.0041
     23 C          16.2608   44.2453    6.2475 C.ar    1  UNL1        0.0148
     24 N          15.9651   42.3641    7.6879 N.ar    1  UNL1       -0.2349
     25 C           9.3079   41.4247    9.7508 C.2     1  UNL1        0.0580
     26 C           8.4398   42.3598    9.3809 C.2     1  UNL1        0.0071
     27 C           7.0085   42.2997    9.7179 C.ar    1  UNL1        0.0286
     28 C           5.9107   42.7542    9.0041 C.ar    1  UNL1        0.0571
     29 C           6.4650   41.7512   10.8662 C.ar    1  UNL1        0.0800
     30 C           7.2205   41.1165   11.9815 C.3     1  UNL1        0.0540
     31 C           3.4321   42.7820    9.3303 C.3     1  UNL1        0.1533
     32 C           5.9181   43.4375    7.6763 C.3     1  UNL1        0.0517
     33 N           4.7999   42.4762    9.7141 N.ar    1  UNL1       -0.2532
     34 N           5.1227   41.8685   10.8445 N.ar    1  UNL1       -0.1739
@<TRIPOS>BOND
     1    18    19    1
     2    20    24   ar
     3    20    16    1
     4    21    22   ar
     5    23    19   ar
     6    10    11   ar
     7    12    15   ar
     8    13     9   ar
     9    14    12    1
    10     1    11    1
    11     1     2    1
    12     2     3    1
    13     3     4    1
    14     4     7    1
    15     5     7    1
    16     5     1    1
    17     6    25    1
    18    26    27    1
    19    28    33   ar
    20    29    27   ar
    21    30    29    1
    22    31    33    1
    23    32    28    1
    24    16     9    1
    25     7     6   am
    26    33    34   ar
    27    19    24   ar
    28    20    21   ar
    29    22    23   ar
    30     9    10   ar
    31    11    15   ar
    32    12    13   ar
    33     6     8    2
    34    25    26    2
    35    27    28   ar
    36    29    34   ar
    37    16    17    1
@<TRIPOS>MOLECULE
MolPort-047-071-969 PubChem-132767160
 34 37 0 0 0
SMALL
GASTEIGER

@<TRIPOS>ATOM
      1 C          12.0132   40.2439    9.5520 C.3     1  UNL1        0.0602
      2 C          11.4760   39.4614    8.3515 C.3     1  UNL1        0.0094
      3 C          10.0278   39.8524    8.0653 C.3     1  UNL1        0.0220
      4 C           9.9391   41.3533    7.8103 C.3     1  UNL1        0.0937
      5 C          11.8891   41.7495    9.3145 C.3     1  UNL1        0.0996
      6 C           9.8208   43.1404    9.6199 C.2     1  UNL1        0.2492
      7 N          10.5139   42.0732    8.9445 N.am    1  UNL1       -0.2757
      8 O          10.4822   43.9790   10.2883 O.2     1  UNL1       -0.2699
      9 C          15.7933   40.2886    9.5333 C.ar    1  UNL1        0.0517
     10 C          14.4639   40.6320    9.2761 C.ar    1  UNL1        0.0294
     11 C          13.4313   39.8720    9.8320 C.ar    1  UNL1        0.0611
     12 C          15.0105   38.4448   10.8870 C.ar    1  UNL1        0.0602
     13 C          16.0661   39.1822   10.3482 C.ar    1  UNL1        0.0294
     14 C          15.2917   37.2700   11.7520 C.3     1  UNL1        0.0521
     15 N          13.7259   38.8008   10.6207 N.ar    1  UNL1       -0.2538
     16 N          16.8358   41.0841    8.9515 N.pl3   1  UNL1       -0.2979
     17 H          17.7592   40.8132    9.1592 H       1  UNL1        0.1536
     18 C          14.0749   43.7847    5.9323 C.3     1  UNL1        0.0521
     19 C          15.3656   43.5579    6.6326 C.ar    1  UNL1        0.0608
     20 C          16.6848   42.2291    8.1016 C.ar    1  UNL1        0.1317
     21 C          17.7608   43.1083    7.9519 C.ar    1  UNL1        0.0344
     22 C          17.6248   44.2262    7.1271 C.ar    1  UNL1        0.0041
     23 C          16.4204   44.4562    6.4610 C.ar    1  UNL1        0.0148
     24 N          15.5184   42.4745    7.4409 N.ar    1  UNL1       -0.2349
     25 C           8.3555   43.3021    9.5841 C.2     1  UNL1        0.0580
     26 C           7.4979   42.2877    9.6013 C.2     1  UNL1        0.0071
     27 C           6.0385   42.4743    9.5642 C.ar    1  UNL1        0.0286
     28 C           5.0515   41.8967   10.3475 C.ar    1  UNL1        0.0571
     29 C           5.3455   43.3021    8.6985 C.ar    1  UNL1        0.0800
     30 C           5.9398   44.1629    7.6387 C.3     1  UNL1        0.0540
     31 C           2.5596   42.0297   10.4984 C.3     1  UNL1        0.1533
     32 C           5.2396   40.9124   11.4546 C.3     1  UNL1        0.0517
     33 N           3.8580   42.3745    9.9445 N.ar    1  UNL1       -0.2532
     34 N           4.0229   43.2270    8.9458 N.ar    1  UNL1       -0.1739
@<TRIPOS>BOND
     1    18    19    1
     2    20    24   ar
     3    20    16    1
     4    21    22   ar
     5    23    19   ar
     6    10    11   ar
     7    12    15   ar
     8    13     9   ar
     9    14    12    1
    10     1    11    1
    11     1     2    1
    12     2     3    1
    13     3     4    1
    14     4     7    1
    15     5     7    1
    16     5     1    1
    17     6    25    1
    18    26    27    1
    19    28    33   ar
    20    29    27   ar
    21    30    29    1
    22    31    33    1
    23    32    28    1
    24    16     9    1
    25     7     6   am
    26    33    34   ar
    27    19    24   ar
    28    20    21   ar
    29    22    23   ar
    30     9    10   ar
    31    11    15   ar
    32    12    13   ar
    33     6     8    2
    34    25    26    2
    35    27    28   ar
    36    29    34   ar
    37    16    17    1
@<TRIPOS>MOLECULE
MolPort-047-071-969 PubChem-132767160
 34 37 0 0 0
SMALL
GASTEIGER

@<TRIPOS>ATOM
      1 C          13.4488   39.0260    9.9567 C.3     1  UNL1        0.0602
      2 C          12.9732   37.6038   10.2619 C.3     1  UNL1        0.0094
      3 C          11.4527   37.5152   10.1518 C.3     1  UNL1        0.0220
      4 C          11.0105   37.9405    8.7557 C.3     1  UNL1        0.0937
      5 C          12.9731   39.4691    8.5725 C.3     1  UNL1        0.0996
      6 C          10.6938   40.3483    7.9912 C.2     1  UNL1        0.2492
      7 N          11.5293   39.2757    8.4679 N.am    1  UNL1       -0.2757
      8 O          11.2217   41.3164    7.3816 O.2     1  UNL1       -0.2699
      9 C          16.9823   40.3276    9.6221 C.ar    1  UNL1        0.0517
     10 C          15.5911   40.2365    9.5346 C.ar    1  UNL1        0.0294
     11 C          14.9353   39.1174   10.0547 C.ar    1  UNL1        0.0611
     12 C          17.0096   38.1850   10.7417 C.ar    1  UNL1        0.0602
     13 C          17.6964   39.2887   10.2330 C.ar    1  UNL1        0.0294
     14 C          17.7598   37.0790   11.3909 C.3     1  UNL1        0.0521
     15 N          15.6553   38.1217   10.6434 N.ar    1  UNL1       -0.2538
     16 N          17.6326   41.4862    9.0810 N.pl3   1  UNL1       -0.2979
     17 H          18.5587   41.6443    9.3753 H       1  UNL1        0.1536
     18 C          13.8948   43.0507    6.3219 C.3     1  UNL1        0.0521
     19 C          15.2871   43.2208    6.8122 C.ar    1  UNL1        0.0608
     20 C          17.0864   42.4399    8.1601 C.ar    1  UNL1        0.1317
     21 C          17.8808   43.5117    7.7439 C.ar    1  UNL1        0.0344
     22 C          17.3590   44.4461    6.8477 C.ar    1  UNL1        0.0041
     23 C          16.0535   44.3032    6.3761 C.ar    1  UNL1        0.0148
     24 N          15.8142   42.3213    7.6859 N.ar    1  UNL1       -0.2349
     25 C           9.2334   40.3849    8.1915 C.2     1  UNL1        0.0580
     26 C           8.6161   41.2539    8.9843 C.2     1  UNL1        0.0071
     27 C           7.1561   41.2705    9.1686 C.ar    1  UNL1        0.0286
     28 C           6.4114   41.4020   10.3302 C.ar    1  UNL1        0.0571
     29 C           6.2079   41.1525    8.1676 C.ar    1  UNL1        0.0800
     30 C           6.4795   40.9863    6.7130 C.3     1  UNL1        0.0540
     31 C           3.9825   41.4627   10.9192 C.3     1  UNL1        0.1533
     32 C           6.9308   41.5637   11.7210 C.3     1  UNL1        0.0517
     33 N           5.1053   41.3605   10.0025 N.ar    1  UNL1       -0.2532
     34 N           4.9690   41.2096    8.6948 N.ar    1  UNL1       -0.1739
@<TRIPOS>BOND
     1    18    19    1
     2    20    24   ar
     3    20    16    1
     4    21    22   ar
     5    23    19   ar
     6    10    11   ar
     7    12    15   ar
     8    13     9   ar
     9    14    12    1
    10     1    11    1
    11     1     2    1
    12     2     3    1
    13     3     4    1
    14     4     7    1
    15     5     7    1
    16     5     1    1
    17     6    25    1
    18    26    27    1
    19    28    33   ar
    20    29    27   ar
    21    30    29    1
    22    31    33    1
    23    32    28    1
    24    16     9    1
    25     7     6   am
    26    33    34   ar
    27    19    24   ar
    28    20    21   ar
    29    22    23   ar
    30     9    10   ar
    31    11    15   ar
    32    12    13   ar
    33     6     8    2
    34    25    26    2
    35    27    28   ar
    36    29    34   ar
    37    16    17    1
@<TRIPOS>MOLECULE
MolPort-047-071-969 PubChem-132767160
 34 37 0 0 0
SMALL
GASTEIGER

@<TRIPOS>ATOM
      1 C          10.9200   39.3518    7.7109 C.3     1  UNL1        0.0602
      2 C          10.8219   39.8118    6.2546 C.3     1  UNL1        0.0094
      3 C           9.5007   40.5387    6.0132 C.3     1  UNL1        0.0220
      4 C           9.3854   41.7284    6.9603 C.3     1  UNL1        0.0937
      5 C          10.7654   40.5381    8.6635 C.3     1  UNL1        0.0996
      6 C           8.6066   41.6014    9.3809 C.2     1  UNL1        0.2492
      7 N           9.5435   41.2689    8.3382 N.am    1  UNL1       -0.2757
      8 O           8.9775   41.5451   10.5837 O.2     1  UNL1       -0.2699
      9 C          14.0895   38.1787    9.4047 C.ar    1  UNL1        0.0517
     10 C          12.8784   38.8340    9.1700 C.ar    1  UNL1        0.0294
     11 C          12.2129   38.6475    7.9555 C.ar    1  UNL1        0.0611
     12 C          13.9251   37.1791    7.2096 C.ar    1  UNL1        0.0602
     13 C          14.6159   37.3427    8.4115 C.ar    1  UNL1        0.0294
     14 C          14.4769   36.2943    6.1512 C.3     1  UNL1        0.0521
     15 N          12.7483   37.8287    7.0071 N.ar    1  UNL1       -0.2538
     16 N          14.7537   38.3860   10.6593 N.pl3   1  UNL1       -0.2979
     17 H          14.2291   38.8329   11.3624 H       1  UNL1        0.1536
     18 C          19.5881   39.0162   10.1471 C.3     1  UNL1        0.0521
     19 C          18.4466   38.3014   10.7746 C.ar    1  UNL1        0.0608
     20 C          16.0951   38.0158   11.0050 C.ar    1  UNL1        0.1317
     21 C          16.2973   36.9864   11.9284 C.ar    1  UNL1        0.0344
     22 C          17.5991   36.6179   12.2723 C.ar    1  UNL1        0.0041
     23 C          18.6841   37.2776   11.6935 C.ar    1  UNL1        0.0148
     24 N          17.1704   38.6454   10.4530 N.ar    1  UNL1       -0.2349
     25 C           7.2109   41.9973    9.1168 C.2     1  UNL1        0.0580
     26 C           6.7287   43.2126    9.3520 C.2     1  UNL1        0.0071
     27 C           5.3308   43.5841    9.0805 C.ar    1  UNL1        0.0286
     28 C           4.8166   44.4892    8.1653 C.ar    1  UNL1        0.0571
     29 C           4.2143   43.0738    9.7191 C.ar    1  UNL1        0.0800
     30 C           4.2097   42.0522   10.8024 C.3     1  UNL1        0.0540
     31 C           2.5436   45.2961    7.5077 C.3     1  UNL1        0.1533
     32 C           5.5851   45.3336    7.2027 C.3     1  UNL1        0.0517
     33 N           3.4743   44.4910    8.2804 N.ar    1  UNL1       -0.2532
     34 N           3.0971   43.6374    9.2187 N.ar    1  UNL1       -0.1739
@<TRIPOS>BOND
     1    18    19    1
     2    20    24   ar
     3    20    16    1
     4    21    22   ar
     5    23    19   ar
     6    10    11   ar
     7    12    15   ar
     8    13     9   ar
     9    14    12    1
    10     1    11    1
    11     1     2    1
    12     2     3    1
    13     3     4    1
    14     4     7    1
    15     5     7    1
    16     5     1    1
    17     6    25    1
    18    26    27    1
    19    28    33   ar
    20    29    27   ar
    21    30    29    1
    22    31    33    1
    23    32    28    1
    24    16     9    1
    25     7     6   am
    26    33    34   ar
    27    19    24   ar
    28    20    21   ar
    29    22    23   ar
    30     9    10   ar
    31    11    15   ar
    32    12    13   ar
    33     6     8    2
    34    25    26    2
    35    27    28   ar
    36    29    34   ar
    37    16    17    1
@<TRIPOS>MOLECULE
MolPort-047-071-969 PubChem-132767160
 34 37 0 0 0
SMALL
GASTEIGER

@<TRIPOS>ATOM
      1 C           9.3325   40.9565    9.0265 C.3     1  UNL1        0.0602
      2 C           8.7998   41.6150    7.7518 C.3     1  UNL1        0.0094
      3 C           7.2796   41.7452    7.8147 C.3     1  UNL1        0.0220
      4 C           6.8812   42.5556    9.0436 C.3     1  UNL1        0.0937
      5 C           8.9011   41.7461   10.2630 C.3     1  UNL1        0.0996
      6 C           6.6672   41.6247   11.4036 C.2     1  UNL1        0.2492
      7 N           7.4536   41.9389   10.2381 N.am    1  UNL1       -0.2757
      8 O           7.2419   41.4895   12.5168 O.2     1  UNL1       -0.2699
      9 C          12.9002   41.1882    7.7980 C.ar    1  UNL1        0.0517
     10 C          11.5090   41.3013    7.8531 C.ar    1  UNL1        0.0294
     11 C          10.8191   40.8336    8.9748 C.ar    1  UNL1        0.0611
     12 C          12.8595   40.1473    9.9796 C.ar    1  UNL1        0.0602
     13 C          13.5799   40.6043    8.8748 C.ar    1  UNL1        0.0294
     14 C          13.5730   39.5267   11.1256 C.3     1  UNL1        0.0521
     15 N          11.5059   40.2698   10.0076 N.ar    1  UNL1       -0.2538
     16 N          13.5860   41.6758    6.6361 N.pl3   1  UNL1       -0.2979
     17 H          13.4015   41.2059    5.7909 H       1  UNL1        0.1536
     18 C          17.7820   43.7748    8.0572 C.3     1  UNL1        0.0521
     19 C          16.5415   43.8108    7.2400 C.ar    1  UNL1        0.0608
     20 C          14.5098   42.7702    6.5665 C.ar    1  UNL1        0.1317
     21 C          14.2196   43.8496    5.7277 C.ar    1  UNL1        0.0344
     22 C          15.1121   44.9204    5.6522 C.ar    1  UNL1        0.0041
     23 C          16.2823   44.9047    6.4121 C.ar    1  UNL1        0.0148
     24 N          15.6590   42.7774    7.2992 N.ar    1  UNL1       -0.2349
     25 C           5.2053   41.4358   11.3650 C.2     1  UNL1        0.0580
     26 C           4.3291   42.3567   11.7509 C.2     1  UNL1        0.0071
     27 C           2.8736   42.1445   11.7035 C.ar    1  UNL1        0.0286
     28 C           1.9137   42.3685   12.6781 C.ar    1  UNL1        0.0571
     29 C           2.1565   41.6585   10.6244 C.ar    1  UNL1        0.0800
     30 C           2.7164   41.2566    9.3045 C.3     1  UNL1        0.0540
     31 C          -0.5654   42.1040   12.8633 C.3     1  UNL1        0.1533
     32 C           2.1348   42.8968   14.0572 C.3     1  UNL1        0.0517
     33 N           0.7118   42.0259   12.1748 N.ar    1  UNL1       -0.2532
     34 N           0.8458   41.5941   10.9310 N.ar    1  UNL1       -0.1739
@<TRIPOS>BOND
     1    18    19    1
     2    20    24   ar
     3    20    16    1
     4    21    22   ar
     5    23    19   ar
     6    10    11   ar
     7    12    15   ar
     8    13     9   ar
     9    14    12    1
    10     1    11    1
    11     1     2    1
    12     2     3    1
    13     3     4    1
    14     4     7    1
    15     5     7    1
    16     5     1    1
    17     6    25    1
    18    26    27    1
    19    28    33   ar
    20    29    27   ar
    21    30    29    1
    22    31    33    1
    23    32    28    1
    24    16     9    1
    25     7     6   am
    26    33    34   ar
    27    19    24   ar
    28    20    21   ar
    29    22    23   ar
    30     9    10   ar
    31    11    15   ar
    32    12    13   ar
    33     6     8    2
    34    25    26    2
    35    27    28   ar
    36    29    34   ar
    37    16    17    1
@<TRIPOS>MOLECULE
MolPort-047-071-969 PubChem-132767160
 34 37 0 0 0
SMALL
GASTEIGER

@<TRIPOS>ATOM
      1 C          11.4864   40.8799    9.8981 C.3     1  UNL1        0.0602
      2 C          11.7294   42.2189    9.1977 C.3     1  UNL1        0.0094
      3 C          10.4161   42.9807    9.0343 C.3     1  UNL1        0.0220
      4 C           9.7722   43.1986   10.3994 C.3     1  UNL1        0.0937
      5 C          10.8052   41.0937   11.2504 C.3     1  UNL1        0.0996
      6 C           8.3554   41.4848   11.6392 C.2     1  UNL1        0.2492
      7 N           9.6083   41.9109   11.0699 N.am    1  UNL1       -0.2757
      8 O           8.3550   40.5984   12.5347 O.2     1  UNL1       -0.2699
      9 C          15.1591   39.9972    9.7449 C.ar    1  UNL1        0.0517
     10 C          13.9567   40.6910    9.5899 C.ar    1  UNL1        0.0294
     11 C          12.7678   40.1337   10.0682 C.ar    1  UNL1        0.0611
     12 C          13.9432   38.2212   10.8459 C.ar    1  UNL1        0.0602
     13 C          15.1488   38.7488   10.3804 C.ar    1  UNL1        0.0294
     14 C          13.9239   36.8977   11.5208 C.3     1  UNL1        0.0521
     15 N          12.7872   38.9175   10.6821 N.ar    1  UNL1       -0.2538
     16 N          16.3664   40.5901    9.2458 N.pl3   1  UNL1       -0.2979
     17 H          17.2029   40.1104    9.4444 H       1  UNL1        0.1536
     18 C          14.5190   43.7791    6.0133 C.3     1  UNL1        0.0521
     19 C          15.6184   43.3659    6.9234 C.ar    1  UNL1        0.0608
     20 C          16.4925   41.8022    8.4903 C.ar    1  UNL1        0.1317
     21 C          17.6523   42.5695    8.6289 C.ar    1  UNL1        0.0344
     22 C          17.7856   43.7514    7.8983 C.ar    1  UNL1        0.0041
     23 C          16.7638   44.1560    7.0383 C.ar    1  UNL1        0.0148
     24 N          15.5080   42.2177    7.6442 N.ar    1  UNL1       -0.2349
     25 C           7.0504   42.0263   11.2171 C.2     1  UNL1        0.0580
     26 C           6.6222   42.0307    9.9595 C.2     1  UNL1        0.0071
     27 C           5.3150   42.5777    9.5623 C.ar    1  UNL1        0.0286
     28 C           5.0178   43.6938    8.7958 C.ar    1  UNL1        0.0571
     29 C           4.0782   42.0542    9.8956 C.ar    1  UNL1        0.0800
     30 C           3.8297   40.8387   10.7190 C.3     1  UNL1        0.0540
     31 C           2.9408   44.8250    7.9853 C.3     1  UNL1        0.1533
     32 C           5.9868   44.6411    8.1684 C.3     1  UNL1        0.0517
     33 N           3.6779   43.7967    8.7002 N.ar    1  UNL1       -0.2532
     34 N           3.0973   42.8090    9.3625 N.ar    1  UNL1       -0.1739
@<TRIPOS>BOND
     1    18    19    1
     2    20    24   ar
     3    20    16    1
     4    21    22   ar
     5    23    19   ar
     6    10    11   ar
     7    12    15   ar
     8    13     9   ar
     9    14    12    1
    10     1    11    1
    11     1     2    1
    12     2     3    1
    13     3     4    1
    14     4     7    1
    15     5     7    1
    16     5     1    1
    17     6    25    1
    18    26    27    1
    19    28    33   ar
    20    29    27   ar
    21    30    29    1
    22    31    33    1
    23    32    28    1
    24    16     9    1
    25     7     6   am
    26    33    34   ar
    27    19    24   ar
    28    20    21   ar
    29    22    23   ar
    30     9    10   ar
    31    11    15   ar
    32    12    13   ar
    33     6     8    2
    34    25    26    2
    35    27    28   ar
    36    29    34   ar
    37    16    17    1
@<TRIPOS>MOLECULE
MolPort-047-071-969 PubChem-132767160
 34 37 0 0 0
SMALL
GASTEIGER

@<TRIPOS>ATOM
      1 C           7.0582   41.3156   11.0500 C.3     1  UNL1        0.0602
      2 C           7.6370   41.8314   12.3695 C.3     1  UNL1        0.0094
      3 C           9.0678   41.3313   12.5555 C.3     1  UNL1        0.0220
      4 C           9.9289   41.7812   11.3800 C.3     1  UNL1        0.0937
      5 C           7.9415   41.7325    9.8733 C.3     1  UNL1        0.0996
      6 C          10.0571   40.6051    9.1256 C.2     1  UNL1        0.2492
      7 N           9.3208   41.3276   10.1312 N.am    1  UNL1       -0.2757
      8 O           9.6352   40.5987    7.9383 O.2     1  UNL1       -0.2699
      9 C           3.3596   41.8818   11.5890 C.ar    1  UNL1        0.0517
     10 C           4.6683   41.4257   11.7634 C.ar    1  UNL1        0.0294
     11 C           5.6623   41.8076   10.8583 C.ar    1  UNL1        0.0611
     12 C           4.0849   43.0796    9.6182 C.ar    1  UNL1        0.0602
     13 C           3.0680   42.7179   10.5034 C.ar    1  UNL1        0.0294
     14 C           3.7836   43.9659    8.4644 C.3     1  UNL1        0.0521
     15 N           5.3501   42.6216    9.8112 N.ar    1  UNL1       -0.2538
     16 N           2.3568   41.4762   12.5314 N.pl3   1  UNL1       -0.2979
     17 H           2.4056   40.5449   12.8471 H       1  UNL1        0.1536
     18 C          -2.4236   42.1246   13.4021 C.3     1  UNL1        0.0521
     19 C          -1.0236   42.6127   13.5001 C.ar    1  UNL1        0.0608
     20 C           1.2916   42.2736   13.0654 C.ar    1  UNL1        0.1317
     21 C           1.5974   43.4968   13.6681 C.ar    1  UNL1        0.0344
     22 C           0.5681   44.2813   14.1914 C.ar    1  UNL1        0.0041
     23 C          -0.7530   43.8397   14.1088 C.ar    1  UNL1        0.0148
     24 N          -0.0063   41.8634   12.9965 N.ar    1  UNL1       -0.2349
     25 C          11.2895   39.8486    9.4140 C.2     1  UNL1        0.0580
     26 C          11.3463   38.5230    9.4813 C.2     1  UNL1        0.0071
     27 C          12.5890   37.7900    9.7714 C.ar    1  UNL1        0.0286
     28 C          13.9057   38.1474    9.5271 C.ar    1  UNL1        0.0571
     29 C          12.6793   36.5467   10.3722 C.ar    1  UNL1        0.0800
     30 C          11.5398   35.7105   10.8407 C.3     1  UNL1        0.0540
     31 C          16.1539   37.1217    9.9066 C.3     1  UNL1        0.1533
     32 C          14.3951   39.4055    8.8884 C.3     1  UNL1        0.0517
     33 N          14.7024   37.1545    9.9682 N.ar    1  UNL1       -0.2532
     34 N          13.9711   36.1788   10.4824 N.ar    1  UNL1       -0.1739
@<TRIPOS>BOND
     1    18    19    1
     2    20    24   ar
     3    20    16    1
     4    21    22   ar
     5    23    19   ar
     6    10    11   ar
     7    12    15   ar
     8    13     9   ar
     9    14    12    1
    10     1    11    1
    11     1     2    1
    12     2     3    1
    13     3     4    1
    14     4     7    1
    15     5     7    1
    16     5     1    1
    17     6    25    1
    18    26    27    1
    19    28    33   ar
    20    29    27   ar
    21    30    29    1
    22    31    33    1
    23    32    28    1
    24    16     9    1
    25     7     6   am
    26    33    34   ar
    27    19    24   ar
    28    20    21   ar
    29    22    23   ar
    30     9    10   ar
    31    11    15   ar
    32    12    13   ar
    33     6     8    2
    34    25    26    2
    35    27    28   ar
    36    29    34   ar
    37    16    17    1
@<TRIPOS>MOLECULE
MolPort-047-071-969 PubChem-132767160
 34 37 0 0 0
SMALL
GASTEIGER

@<TRIPOS>ATOM
      1 C           7.1268   41.5775   10.6966 C.3     1  UNL1        0.0602
      2 C           7.6517   41.7153   12.1275 C.3     1  UNL1        0.0094
      3 C           9.1108   41.2715   12.2049 C.3     1  UNL1        0.0220
      4 C           9.9543   42.1004   11.2420 C.3     1  UNL1        0.0937
      5 C           7.9947   42.3767    9.7237 C.3     1  UNL1        0.0996
      6 C          10.1919   41.6525    8.7471 C.2     1  UNL1        0.2492
      7 N           9.3950   41.9992    9.8961 N.am    1  UNL1       -0.2757
      8 O           9.7869   41.9710    7.5973 O.2     1  UNL1       -0.2699
      9 C           3.4617   42.0080   11.5170 C.ar    1  UNL1        0.0517
     10 C           4.7959   41.6008   11.5905 C.ar    1  UNL1        0.0294
     11 C           5.7030   42.0174   10.6126 C.ar    1  UNL1        0.0611
     12 C           3.9898   43.2282    9.4978 C.ar    1  UNL1        0.0602
     13 C           3.0575   42.8308   10.4577 C.ar    1  UNL1        0.0294
     14 C           3.5688   44.1006    8.3712 C.3     1  UNL1        0.0521
     15 N           5.2821   42.8174    9.5932 N.ar    1  UNL1       -0.2538
     16 N           2.5495   41.5674   12.5327 N.pl3   1  UNL1       -0.2979
     17 H           2.6905   40.6575   12.8813 H       1  UNL1        0.1536
     18 C           0.8567   45.5706   14.8000 C.3     1  UNL1        0.0521
     19 C           0.6082   44.2350   14.1980 C.ar    1  UNL1        0.0608
     20 C           1.4555   42.3023   13.0977 C.ar    1  UNL1        0.1317
     21 C           0.1757   41.7418   13.0683 C.ar    1  UNL1        0.0344
     22 C          -0.8966   42.4486   13.6153 C.ar    1  UNL1        0.0041
     23 C          -0.6831   43.7043   14.1852 C.ar    1  UNL1        0.0148
     24 N           1.6395   43.5302   13.6596 N.ar    1  UNL1       -0.2349
     25 C          11.4693   40.9218    8.8406 C.2     1  UNL1        0.0580
     26 C          12.5517   41.3971    9.4466 C.2     1  UNL1        0.0071
     27 C          13.8164   40.6487    9.5265 C.ar    1  UNL1        0.0286
     28 C          14.1754   39.6028   10.3622 C.ar    1  UNL1        0.0571
     29 C          14.9378   40.8596    8.7435 C.ar    1  UNL1        0.0800
     30 C          15.0829   41.8819    7.6707 C.3     1  UNL1        0.0540
     31 C          16.2035   38.1816   10.7050 C.3     1  UNL1        0.1533
     32 C          13.3355   38.9632   11.4184 C.3     1  UNL1        0.0517
     33 N          15.4386   39.2394   10.0665 N.ar    1  UNL1       -0.2532
     34 N          15.9115   39.9936    9.0873 N.ar    1  UNL1       -0.1739
@<TRIPOS>BOND
     1    18    19    1
     2    20    24   ar
     3    20    16    1
     4    21    22   ar
     5    23    19   ar
     6    10    11   ar
     7    12    15   ar
     8    13     9   ar
     9    14    12    1
    10     1    11    1
    11     1     2    1
    12     2     3    1
    13     3     4    1
    14     4     7    1
    15     5     7    1
    16     5     1    1
    17     6    25    1
    18    26    27    1
    19    28    33   ar
    20    29    27   ar
    21    30    29    1
    22    31    33    1
    23    32    28    1
    24    16     9    1
    25     7     6   am
    26    33    34   ar
    27    19    24   ar
    28    20    21   ar
    29    22    23   ar
    30     9    10   ar
    31    11    15   ar
    32    12    13   ar
    33     6     8    2
    34    25    26    2
    35    27    28   ar
    36    29    34   ar
    37    16    17    1
@<TRIPOS>MOLECULE
MolPort-047-071-969 PubChem-132767160
 34 37 0 0 0
SMALL
GASTEIGER

@<TRIPOS>ATOM
      1 C          11.6447   42.1565    8.3369 C.3     1  UNL1        0.0602
      2 C          11.5718   41.1946    9.5250 C.3     1  UNL1        0.0094
      3 C          10.1226   41.0011    9.9658 C.3     1  UNL1        0.0220
      4 C           9.2937   40.4755    8.7987 C.3     1  UNL1        0.0937
      5 C          10.7828   41.6510    7.1792 C.3     1  UNL1        0.0996
      6 C           8.2960   41.9121    6.9486 C.2     1  UNL1        0.2492
      7 N           9.4305   41.3805    7.6598 N.am    1  UNL1       -0.2757
      8 O           8.4483   42.3306    5.7700 O.2     1  UNL1       -0.2699
      9 C          15.3987   41.7771    8.1033 C.ar    1  UNL1        0.0517
     10 C          14.0736   41.6058    8.5105 C.ar    1  UNL1        0.0294
     11 C          13.0583   42.3436    7.8960 C.ar    1  UNL1        0.0611
     12 C          14.6466   43.4118    6.4887 C.ar    1  UNL1        0.0602
     13 C          15.6850   42.6909    7.0808 C.ar    1  UNL1        0.0294
     14 C          14.9420   44.3830    5.4038 C.3     1  UNL1        0.0521
     15 N          13.3656   43.2257    6.9041 N.ar    1  UNL1       -0.2538
     16 N          16.4233   41.0082    8.7491 N.pl3   1  UNL1       -0.2979
     17 H          17.3525   41.2410    8.5220 H       1  UNL1        0.1536
     18 C          18.2029   37.0788   11.0781 C.3     1  UNL1        0.0521
     19 C          17.0869   38.0284   10.8320 C.ar    1  UNL1        0.0608
     20 C          16.2470   39.9388    9.6880 C.ar    1  UNL1        0.1317
     21 C          15.0236   39.8150   10.3521 C.ar    1  UNL1        0.0344
     22 C          14.8411   38.7777   11.2682 C.ar    1  UNL1        0.0041
     23 C          15.8775   37.8759   11.5127 C.ar    1  UNL1        0.0148
     24 N          17.2446   39.0460    9.9432 N.ar    1  UNL1       -0.2349
     25 C           6.9469   42.0086    7.5361 C.2     1  UNL1        0.0580
     26 C           6.6606   42.7202    8.6207 C.2     1  UNL1        0.0071
     27 C           5.3055   42.8007    9.1891 C.ar    1  UNL1        0.0286
     28 C           4.7434   42.0960   10.2421 C.ar    1  UNL1        0.0571
     29 C           4.2901   43.6360    8.7576 C.ar    1  UNL1        0.0800
     30 C           4.3706   44.6135    7.6373 C.3     1  UNL1        0.0540
     31 C           2.5233   42.0329   11.3899 C.3     1  UNL1        0.1533
     32 C           5.4014   41.0500   11.0804 C.3     1  UNL1        0.0517
     33 N           3.4717   42.5123   10.3988 N.ar    1  UNL1       -0.2532
     34 N           3.1852   43.4454    9.5052 N.ar    1  UNL1       -0.1739
@<TRIPOS>BOND
     1    18    19    1
     2    20    24   ar
     3    20    16    1
     4    21    22   ar
     5    23    19   ar
     6    10    11   ar
     7    12    15   ar
     8    13     9   ar
     9    14    12    1
    10     1    11    1
    11     1     2    1
    12     2     3    1
    13     3     4    1
    14     4     7    1
    15     5     7    1
    16     5     1    1
    17     6    25    1
    18    26    27    1
    19    28    33   ar
    20    29    27   ar
    21    30    29    1
    22    31    33    1
    23    32    28    1
    24    16     9    1
    25     7     6   am
    26    33    34   ar
    27    19    24   ar
    28    20    21   ar
    29    22    23   ar
    30     9    10   ar
    31    11    15   ar
    32    12    13   ar
    33     6     8    2
    34    25    26    2
    35    27    28   ar
    36    29    34   ar
    37    16    17    1
@<TRIPOS>MOLECULE
MolPort-047-071-969 PubChem-132767160
 34 37 0 0 0
SMALL
GASTEIGER

@<TRIPOS>ATOM
      1 C           6.4978   41.3949   10.9307 C.3     1  UNL1        0.0602
      2 C           7.0808   42.4081   11.9185 C.3     1  UNL1        0.0094
      3 C           8.6060   42.3337   11.9202 C.3     1  UNL1        0.0220
      4 C           9.1370   42.5895   10.5137 C.3     1  UNL1        0.0937
      5 C           7.0591   41.6250    9.5268 C.3     1  UNL1        0.0996
      6 C           9.2851   40.8443    8.6659 C.2     1  UNL1        0.2492
      7 N           8.5183   41.6486    9.5828 N.am    1  UNL1       -0.2757
      8 O           8.7252   40.3784    7.6378 O.2     1  UNL1       -0.2699
      9 C           2.9354   41.9697   12.0574 C.ar    1  UNL1        0.0517
     10 C           4.3305   41.9000   12.0621 C.ar    1  UNL1        0.0294
     11 C           5.0072   41.4681   10.9182 C.ar    1  UNL1        0.0611
     12 C           2.9458   41.1754    9.7740 C.ar    1  UNL1        0.0602
     13 C           2.2384   41.6027   10.8990 C.ar    1  UNL1        0.0294
     14 C           2.2139   40.7843    8.5416 C.3     1  UNL1        0.0521
     15 N           4.3036   41.1170    9.8055 N.ar    1  UNL1       -0.2538
     16 N           2.2634   42.4163   13.2436 N.pl3   1  UNL1       -0.2979
     17 H           2.8386   42.6922   13.9936 H       1  UNL1        0.1536
     18 C          -1.8083   45.1264   13.5720 C.3     1  UNL1        0.0521
     19 C          -1.1425   43.7991   13.6251 C.ar    1  UNL1        0.0608
     20 C           0.8489   42.5063   13.4606 C.ar    1  UNL1        0.1317
     21 C           0.1272   41.3376   13.7180 C.ar    1  UNL1        0.0344
     22 C          -1.2504   41.4137   13.9306 C.ar    1  UNL1        0.0041
     23 C          -1.8935   42.6512   13.8847 C.ar    1  UNL1        0.0148
     24 N           0.1989   43.7036   13.4206 N.ar    1  UNL1       -0.2349
     25 C          10.7084   40.5185    8.8725 C.2     1  UNL1        0.0580
     26 C          11.6808   41.4236    8.8868 C.2     1  UNL1        0.0071
     27 C          13.0951   41.0738    9.0945 C.ar    1  UNL1        0.0286
     28 C          14.2248   41.5175    8.4249 C.ar    1  UNL1        0.0571
     29 C          13.5851   40.1941   10.0436 C.ar    1  UNL1        0.0800
     30 C          12.7791   39.4321   11.0370 C.3     1  UNL1        0.0540
     31 C          16.6858   41.1006    8.5656 C.3     1  UNL1        0.1533
     32 C          14.2785   42.4901    7.2931 C.3     1  UNL1        0.0517
     33 N          15.3017   40.9179    8.9688 N.ar    1  UNL1       -0.2532
     34 N          14.9271   40.1135    9.9507 N.ar    1  UNL1       -0.1739
@<TRIPOS>BOND
     1    18    19    1
     2    20    24   ar
     3    20    16    1
     4    21    22   ar
     5    23    19   ar
     6    10    11   ar
     7    12    15   ar
     8    13     9   ar
     9    14    12    1
    10     1    11    1
    11     1     2    1
    12     2     3    1
    13     3     4    1
    14     4     7    1
    15     5     7    1
    16     5     1    1
    17     6    25    1
    18    26    27    1
    19    28    33   ar
    20    29    27   ar
    21    30    29    1
    22    31    33    1
    23    32    28    1
    24    16     9    1
    25     7     6   am
    26    33    34   ar
    27    19    24   ar
    28    20    21   ar
    29    22    23   ar
    30     9    10   ar
    31    11    15   ar
    32    12    13   ar
    33     6     8    2
    34    25    26    2
    35    27    28   ar
    36    29    34   ar
    37    16    17    1
