@<TRIPOS>MOLECULE
MolPort-029-891-160 96136481 CSC046102906 CSSS00046102906 MCULE-3429289033 PubChem-72855602 ZINC000096136481 ZINC96136481
 29 32 0 0 0
SMALL
GASTEIGER

@<TRIPOS>ATOM
      1 O           3.0529   42.2286    9.3979 O.2     1  UNL1       -0.2522
      2 O           7.1580   42.1912    6.7470 O.2     1  UNL1       -0.2727
      3 C           3.9783   41.9318   10.2023 C.2     1  UNL1        0.3081
      4 C           6.3183   41.1657   10.6516 C.3     1  UNL1        0.1173
      5 C           7.5319   40.5550    9.9550 C.3     1  UNL1        0.1197
      6 C           6.8874   41.7234    7.8846 C.2     1  UNL1        0.2497
      7 C           5.4606   41.4504    8.2445 C.3     1  UNL1        0.1809
      8 N           3.7574   41.9952   11.6202 N.am    1  UNL1       -0.2680
      9 N           5.2602   41.5305    9.6974 N.am    1  UNL1       -0.2536
     10 N           7.9257   41.3893    8.8234 N.am    1  UNL1       -0.2555
     11 H           4.5187   41.7521   12.1950 H       1  UNL1        0.1564
     12 C           2.5464   42.3749   12.2879 C.ar    1  UNL1        0.0546
     13 C           1.6598   41.3717   12.6940 C.ar    1  UNL1        0.0516
     14 C           0.4658   41.6936   13.3479 C.ar    1  UNL1        0.1396
     15 C           0.1595   43.0403   13.5995 C.ar    1  UNL1        0.0370
     16 C           1.0386   44.0485   13.1977 C.ar    1  UNL1        0.0044
     17 C           2.2278   43.7169   12.5440 C.ar    1  UNL1        0.0149
     18 O          -0.3915   40.6596   13.7390 O.3     1  UNL1       -0.4791
     19 C          -1.6051   40.8795   14.4500 C.3     1  UNL1        0.1659
     20 C          -1.4282   42.0436   15.4091 C.3     1  UNL1        0.0435
     21 C          -1.4961   41.4678   16.8072 C.3     1  UNL1        0.0038
     22 C          -2.2762   40.1826   16.6733 C.3     1  UNL1        0.0038
     23 C          -1.9414   39.6609   15.2948 C.3     1  UNL1        0.0435
     24 C           9.2867   41.8615    8.7134 C.ar    1  UNL1        0.0539
     25 C           9.9133   42.5296    9.7792 C.ar    1  UNL1        0.0149
     26 C          11.2355   42.9688    9.6684 C.ar    1  UNL1        0.0013
     27 C          11.9504   42.7412    8.4906 C.ar    1  UNL1        0.0001
     28 C          11.3439   42.0733    7.4248 C.ar    1  UNL1        0.0013
     29 C          10.0216   41.6346    7.5366 C.ar    1  UNL1        0.0149
@<TRIPOS>BOND
     1     3     8   am
     2     3     9   am
     3    13    14   ar
     4    14    18    1
     5    19    18    1
     6    19    20    1
     7    20    21    1
     8    21    22    1
     9    22    23    1
    10    23    19    1
    11    15    16   ar
    12    17    12   ar
    13     4     9    1
    14     4     5    1
    15     5    10    1
    16     7     6    1
    17     7     9    1
    18    25    26   ar
    19    27    28   ar
    20    29    24   ar
    21     8    12    1
    22    10     6   am
    23    10    24    1
    24     3     1    2
    25    12    13   ar
    26    14    15   ar
    27    16    17   ar
    28     6     2    2
    29    24    25   ar
    30    26    27   ar
    31    28    29   ar
    32     8    11    1
@<TRIPOS>MOLECULE
MolPort-029-891-160 96136481 CSC046102906 CSSS00046102906 MCULE-3429289033 PubChem-72855602 ZINC000096136481 ZINC96136481
 29 32 0 0 0
SMALL
GASTEIGER

@<TRIPOS>ATOM
      1 O           9.5338   42.0551    7.4971 O.2     1  UNL1       -0.2522
      2 O          13.7585   43.1660    5.3066 O.2     1  UNL1       -0.2727
      3 C          10.4395   41.7255    8.3110 C.2     1  UNL1        0.3081
      4 C          12.8365   41.2178    8.8219 C.3     1  UNL1        0.1173
      5 C          14.1745   40.9479    8.1377 C.3     1  UNL1        0.1197
      6 C          13.4910   42.4314    6.2941 C.2     1  UNL1        0.2497
      7 C          12.1048   41.8895    6.4504 C.3     1  UNL1        0.1809
      8 N          10.1186   41.4511    9.6840 N.am    1  UNL1       -0.2680
      9 N          11.7991   41.6265    7.8628 N.am    1  UNL1       -0.2536
     10 N          14.5051   42.0528    7.2424 N.am    1  UNL1       -0.2555
     11 H          10.8693   41.1996   10.2691 H       1  UNL1        0.1564
     12 C           8.8215   41.5042   10.2934 C.ar    1  UNL1        0.0546
     13 C           7.6913   41.3522    9.4829 C.ar    1  UNL1        0.0516
     14 C           6.4056   41.3976   10.0320 C.ar    1  UNL1        0.1396
     15 C           6.2530   41.5959   11.4134 C.ar    1  UNL1        0.0370
     16 C           7.3756   41.7487   12.2303 C.ar    1  UNL1        0.0044
     17 C           8.6554   41.7032   11.6721 C.ar    1  UNL1        0.0149
     18 O           5.3026   41.2388    9.1863 O.3     1  UNL1       -0.4791
     19 C           4.8821   42.2328    8.2579 C.3     1  UNL1        0.1659
     20 C           6.0844   43.0374    7.7958 C.3     1  UNL1        0.0435
     21 C           5.9091   44.4354    8.3487 C.3     1  UNL1        0.0038
     22 C           4.4253   44.5926    8.5764 C.3     1  UNL1        0.0038
     23 C           3.9334   43.2092    8.9350 C.3     1  UNL1        0.0435
     24 C          15.7786   42.7243    7.3636 C.ar    1  UNL1        0.0539
     25 C          16.7267   42.3191    8.3185 C.ar    1  UNL1        0.0149
     26 C          17.9621   42.9652    8.4172 C.ar    1  UNL1        0.0013
     27 C          18.2673   44.0231    7.5583 C.ar    1  UNL1        0.0001
     28 C          17.3383   44.4336    6.6000 C.ar    1  UNL1        0.0013
     29 C          16.1031   43.7868    6.5021 C.ar    1  UNL1        0.0149
@<TRIPOS>BOND
     1     3     8   am
     2     3     9   am
     3    13    14   ar
     4    14    18    1
     5    19    18    1
     6    19    20    1
     7    20    21    1
     8    21    22    1
     9    22    23    1
    10    23    19    1
    11    15    16   ar
    12    17    12   ar
    13     4     9    1
    14     4     5    1
    15     5    10    1
    16     7     6    1
    17     7     9    1
    18    25    26   ar
    19    27    28   ar
    20    29    24   ar
    21     8    12    1
    22    10     6   am
    23    10    24    1
    24     3     1    2
    25    12    13   ar
    26    14    15   ar
    27    16    17   ar
    28     6     2    2
    29    24    25   ar
    30    26    27   ar
    31    28    29   ar
    32     8    11    1
@<TRIPOS>MOLECULE
MolPort-029-891-160 96136481 CSC046102906 CSSS00046102906 MCULE-3429289033 PubChem-72855602 ZINC000096136481 ZINC96136481
 29 32 0 0 0
SMALL
GASTEIGER

@<TRIPOS>ATOM
      1 O          10.4823   41.6065    9.0695 O.2     1  UNL1       -0.2522
      2 O           7.0330   42.2468   12.4714 O.2     1  UNL1       -0.2727
      3 C           9.4076   41.1993    8.5494 C.2     1  UNL1        0.3081
      4 C           7.0259   40.4583    8.7560 C.3     1  UNL1        0.1173
      5 C           5.9879   40.0428    9.7958 C.3     1  UNL1        0.1197
      6 C           7.0563   41.5589   11.4165 C.2     1  UNL1        0.2497
      7 C           8.3744   41.1635   10.8283 C.3     1  UNL1        0.1809
      8 N           9.3226   40.9807    7.1323 N.am    1  UNL1       -0.2680
      9 N           8.2621   40.9553    9.3787 N.am    1  UNL1       -0.2536
     10 N           5.8427   41.0940   10.7985 N.am    1  UNL1       -0.2555
     11 H           8.4568   40.6634    6.7875 H       1  UNL1        0.1564
     12 C          10.3643   41.1753    6.1660 C.ar    1  UNL1        0.0546
     13 C          11.4259   42.0289    6.4848 C.ar    1  UNL1        0.0516
     14 C          12.4643   42.2505    5.5741 C.ar    1  UNL1        0.1396
     15 C          12.4374   41.6044    4.3280 C.ar    1  UNL1        0.0370
     16 C          11.3816   40.7504    4.0012 C.ar    1  UNL1        0.0044
     17 C          10.3485   40.5368    4.9169 C.ar    1  UNL1        0.0149
     18 O          13.5079   43.1099    5.9337 O.3     1  UNL1       -0.4791
     19 C          14.0806   43.1389    7.2367 C.3     1  UNL1        0.1659
     20 C          15.4145   43.8633    7.1894 C.3     1  UNL1        0.0435
     21 C          16.4809   42.8272    7.4728 C.3     1  UNL1        0.0038
     22 C          15.7813   41.7326    8.2412 C.3     1  UNL1        0.0038
     23 C          14.3657   41.7228    7.7115 C.3     1  UNL1        0.0435
     24 C           4.5357   41.6342   11.0946 C.ar    1  UNL1        0.0539
     25 C           3.7611   41.1265   12.1515 C.ar    1  UNL1        0.0149
     26 C           2.5046   41.6663   12.4396 C.ar    1  UNL1        0.0013
     27 C           2.0079   42.7250   11.6764 C.ar    1  UNL1        0.0001
     28 C           2.7681   43.2447   10.6267 C.ar    1  UNL1        0.0013
     29 C           4.0246   42.7041   10.3394 C.ar    1  UNL1        0.0149
@<TRIPOS>BOND
     1     3     8   am
     2     3     9   am
     3    13    14   ar
     4    14    18    1
     5    19    18    1
     6    19    20    1
     7    20    21    1
     8    21    22    1
     9    22    23    1
    10    23    19    1
    11    15    16   ar
    12    17    12   ar
    13     4     9    1
    14     4     5    1
    15     5    10    1
    16     7     6    1
    17     7     9    1
    18    25    26   ar
    19    27    28   ar
    20    29    24   ar
    21     8    12    1
    22    10     6   am
    23    10    24    1
    24     3     1    2
    25    12    13   ar
    26    14    15   ar
    27    16    17   ar
    28     6     2    2
    29    24    25   ar
    30    26    27   ar
    31    28    29   ar
    32     8    11    1
@<TRIPOS>MOLECULE
MolPort-029-891-160 96136481 CSC046102906 CSSS00046102906 MCULE-3429289033 PubChem-72855602 ZINC000096136481 ZINC96136481
 29 32 0 0 0
SMALL
GASTEIGER

@<TRIPOS>ATOM
      1 O           2.1195   41.9305   10.4018 O.2     1  UNL1       -0.2522
      2 O           6.2848   41.9972    7.8472 O.2     1  UNL1       -0.2727
      3 C           3.0464   41.8669   11.2551 C.2     1  UNL1        0.3081
      4 C           5.4437   41.4597   11.8480 C.3     1  UNL1        0.1173
      5 C           6.7419   40.9032   11.2682 C.3     1  UNL1        0.1197
      6 C           6.0336   41.6716    9.0377 C.2     1  UNL1        0.2497
      7 C           4.6372   41.2855    9.4129 C.3     1  UNL1        0.1809
      8 N           2.7739   42.1098   12.6443 N.am    1  UNL1       -0.2680
      9 N           4.3819   41.5522   10.8346 N.am    1  UNL1       -0.2536
     10 N           7.0727   41.6045   10.0310 N.am    1  UNL1       -0.2555
     11 H           3.5393   42.0458   13.2602 H       1  UNL1        0.1564
     12 C           1.5061   42.4355   13.2301 C.ar    1  UNL1        0.0546
     13 C           1.4319   43.5181   14.1132 C.ar    1  UNL1        0.0516
     14 C           0.2175   43.8731   14.7098 C.ar    1  UNL1        0.1396
     15 C          -0.9379   43.1327   14.4136 C.ar    1  UNL1        0.0370
     16 C          -0.8734   42.0504   13.5332 C.ar    1  UNL1        0.0044
     17 C           0.3445   41.7029   12.9437 C.ar    1  UNL1        0.0149
     18 O           0.1870   44.9638   15.5852 O.3     1  UNL1       -0.4791
     19 C          -0.9869   45.3759   16.2771 C.3     1  UNL1        0.1659
     20 C          -2.0474   45.7945   15.2739 C.3     1  UNL1        0.0435
     21 C          -2.2353   47.2873   15.4389 C.3     1  UNL1        0.0038
     22 C          -1.7828   47.5946   16.8456 C.3     1  UNL1        0.0038
     23 C          -0.6852   46.5960   17.1329 C.3     1  UNL1        0.0435
     24 C           8.3726   42.2148    9.8722 C.ar    1  UNL1        0.0539
     25 C           8.7017   43.4088   10.5362 C.ar    1  UNL1        0.0149
     26 C           9.9674   43.9829   10.3883 C.ar    1  UNL1        0.0013
     27 C          10.9228   43.3673    9.5770 C.ar    1  UNL1        0.0001
     28 C          10.6133   42.1771    8.9154 C.ar    1  UNL1        0.0013
     29 C           9.3472   41.6039    9.0641 C.ar    1  UNL1        0.0149
@<TRIPOS>BOND
     1     3     8   am
     2     3     9   am
     3    13    14   ar
     4    14    18    1
     5    19    18    1
     6    19    20    1
     7    20    21    1
     8    21    22    1
     9    22    23    1
    10    23    19    1
    11    15    16   ar
    12    17    12   ar
    13     4     9    1
    14     4     5    1
    15     5    10    1
    16     7     6    1
    17     7     9    1
    18    25    26   ar
    19    27    28   ar
    20    29    24   ar
    21     8    12    1
    22    10     6   am
    23    10    24    1
    24     3     1    2
    25    12    13   ar
    26    14    15   ar
    27    16    17   ar
    28     6     2    2
    29    24    25   ar
    30    26    27   ar
    31    28    29   ar
    32     8    11    1
@<TRIPOS>MOLECULE
MolPort-029-891-160 96136481 CSC046102906 CSSS00046102906 MCULE-3429289033 PubChem-72855602 ZINC000096136481 ZINC96136481
 29 32 0 0 0
SMALL
GASTEIGER

@<TRIPOS>ATOM
      1 O          10.3841   40.7688    6.5054 O.2     1  UNL1       -0.2522
      2 O           5.5890   40.1792    7.2404 O.2     1  UNL1       -0.2727
      3 C          10.0792   41.5637    7.4363 C.2     1  UNL1        0.3081
      4 C           8.3674   42.8185    8.7628 C.3     1  UNL1        0.1173
      5 C           6.8896   43.2018    8.7506 C.3     1  UNL1        0.1197
      6 C           6.3874   41.0892    7.5880 C.2     1  UNL1        0.2497
      7 C           7.6683   41.2676    6.8349 C.3     1  UNL1        0.1809
      8 N          11.1035   42.1611    8.2470 N.am    1  UNL1       -0.2680
      9 N           8.7003   41.8711    7.6883 N.am    1  UNL1       -0.2536
     10 N           6.0665   41.9996    8.6553 N.am    1  UNL1       -0.2555
     11 H          10.8014   42.7721    8.9574 H       1  UNL1        0.1564
     12 C          12.5191   41.9628    8.1321 C.ar    1  UNL1        0.0546
     13 C          13.2342   42.7387    7.2134 C.ar    1  UNL1        0.0516
     14 C          14.6161   42.5803    7.0653 C.ar    1  UNL1        0.1396
     15 C          15.2890   41.6320    7.8520 C.ar    1  UNL1        0.0370
     16 C          14.5834   40.8529    8.7717 C.ar    1  UNL1        0.0044
     17 C          13.2032   41.0176    8.9111 C.ar    1  UNL1        0.0149
     18 O          15.2931   43.3780    6.1367 O.3     1  UNL1       -0.4791
     19 C          16.4111   44.1915    6.4756 C.3     1  UNL1        0.1659
     20 C          17.6639   43.6289    5.8271 C.3     1  UNL1        0.0435
     21 C          18.5427   43.1209    6.9499 C.3     1  UNL1        0.0038
     22 C          18.1170   43.8957    8.1732 C.3     1  UNL1        0.0038
     23 C          16.6416   44.1595    7.9782 C.3     1  UNL1        0.0435
     24 C           5.0222   41.7606    9.6247 C.ar    1  UNL1        0.0539
     25 C           5.2540   40.9713   10.7640 C.ar    1  UNL1        0.0149
     26 C           4.2416   40.7589   11.7039 C.ar    1  UNL1        0.0013
     27 C           2.9843   41.3374   11.5185 C.ar    1  UNL1        0.0001
     28 C           2.7400   42.1294   10.3947 C.ar    1  UNL1        0.0013
     29 C           3.7531   42.3412    9.4554 C.ar    1  UNL1        0.0149
@<TRIPOS>BOND
     1     3     8   am
     2     3     9   am
     3    13    14   ar
     4    14    18    1
     5    19    18    1
     6    19    20    1
     7    20    21    1
     8    21    22    1
     9    22    23    1
    10    23    19    1
    11    15    16   ar
    12    17    12   ar
    13     4     9    1
    14     4     5    1
    15     5    10    1
    16     7     6    1
    17     7     9    1
    18    25    26   ar
    19    27    28   ar
    20    29    24   ar
    21     8    12    1
    22    10     6   am
    23    10    24    1
    24     3     1    2
    25    12    13   ar
    26    14    15   ar
    27    16    17   ar
    28     6     2    2
    29    24    25   ar
    30    26    27   ar
    31    28    29   ar
    32     8    11    1
@<TRIPOS>MOLECULE
MolPort-029-891-160 96136481 CSC046102906 CSSS00046102906 MCULE-3429289033 PubChem-72855602 ZINC000096136481 ZINC96136481
 29 32 0 0 0
SMALL
GASTEIGER

@<TRIPOS>ATOM
      1 O           7.1538   40.5714   10.7417 O.2     1  UNL1       -0.2522
      2 O           2.8175   39.8448   12.8746 O.2     1  UNL1       -0.2727
      3 C           6.4856   41.6196   10.5267 C.2     1  UNL1        0.3081
      4 C           4.3030   42.8431   10.4650 C.3     1  UNL1        0.1173
      5 C           2.7962   42.6063   10.5332 C.3     1  UNL1        0.1197
      6 C           3.2016   40.6797   12.0133 C.2     1  UNL1        0.2497
      7 C           4.4164   40.3797   11.1924 C.3     1  UNL1        0.1809
      8 N           7.1360   42.8153   10.0679 N.am    1  UNL1       -0.2680
      9 N           5.0671   41.6179   10.7441 N.am    1  UNL1       -0.2536
     10 N           2.4625   41.8882   11.7598 N.am    1  UNL1       -0.2555
     11 H           6.5600   43.5998    9.9192 H       1  UNL1        0.1564
     12 C           8.5348   42.9886    9.8034 C.ar    1  UNL1        0.0546
     13 C           9.1811   42.0665    8.9730 C.ar    1  UNL1        0.0516
     14 C          10.5444   42.1939    8.6869 C.ar    1  UNL1        0.1396
     15 C          11.2675   43.2625    9.2401 C.ar    1  UNL1        0.0370
     16 C          10.6307   44.1878   10.0703 C.ar    1  UNL1        0.0044
     17 C           9.2691   44.0511   10.3511 C.ar    1  UNL1        0.0149
     18 O          11.1511   41.2513    7.8500 O.3     1  UNL1       -0.4791
     19 C          11.9676   40.1900    8.3335 C.3     1  UNL1        0.1659
     20 C          11.4200   39.6910    9.6592 C.3     1  UNL1        0.0435
     21 C          12.4384   40.0610   10.7160 C.3     1  UNL1        0.0038
     22 C          13.7485   40.1973    9.9790 C.3     1  UNL1        0.0038
     23 C          13.3754   40.6977    8.6024 C.3     1  UNL1        0.0435
     24 C           1.4641   42.4195   12.6589 C.ar    1  UNL1        0.0539
     25 C           1.7038   43.5861   13.4047 C.ar    1  UNL1        0.0149
     26 C           0.7256   44.1008   14.2600 C.ar    1  UNL1        0.0013
     27 C          -0.5081   43.4570   14.3772 C.ar    1  UNL1        0.0001
     28 C          -0.7640   42.3002   13.6382 C.ar    1  UNL1        0.0013
     29 C           0.2151   41.7864   12.7831 C.ar    1  UNL1        0.0149
@<TRIPOS>BOND
     1     3     8   am
     2     3     9   am
     3    13    14   ar
     4    14    18    1
     5    19    18    1
     6    19    20    1
     7    20    21    1
     8    21    22    1
     9    22    23    1
    10    23    19    1
    11    15    16   ar
    12    17    12   ar
    13     4     9    1
    14     4     5    1
    15     5    10    1
    16     7     6    1
    17     7     9    1
    18    25    26   ar
    19    27    28   ar
    20    29    24   ar
    21     8    12    1
    22    10     6   am
    23    10    24    1
    24     3     1    2
    25    12    13   ar
    26    14    15   ar
    27    16    17   ar
    28     6     2    2
    29    24    25   ar
    30    26    27   ar
    31    28    29   ar
    32     8    11    1
@<TRIPOS>MOLECULE
MolPort-029-891-160 96136481 CSC046102906 CSSS00046102906 MCULE-3429289033 PubChem-72855602 ZINC000096136481 ZINC96136481
 29 32 0 0 0
SMALL
GASTEIGER

@<TRIPOS>ATOM
      1 O          11.0259   39.3678   10.4913 O.2     1  UNL1       -0.2522
      2 O          15.3467   38.0387   12.3472 O.2     1  UNL1       -0.2727
      3 C          11.8816   39.6584    9.6111 C.2     1  UNL1        0.3081
      4 C          14.2543   40.0523    8.9187 C.3     1  UNL1        0.1173
      5 C          15.6524   40.2524    9.4986 C.3     1  UNL1        0.1197
      6 C          15.0406   38.7919   11.3853 C.2     1  UNL1        0.2497
      7 C          13.6746   39.4015   11.3376 C.3     1  UNL1        0.1809
      8 N          11.4701   39.9570    8.2676 N.am    1  UNL1       -0.2680
      9 N          13.2748   39.6883    9.9536 N.am    1  UNL1       -0.2536
     10 N          15.9962   39.1269   10.3628 N.am    1  UNL1       -0.2555
     11 H          12.1852   40.1755    7.6271 H       1  UNL1        0.1564
     12 C          10.1291   39.9709    7.7596 C.ar    1  UNL1        0.0546
     13 C           9.1791   40.7799    8.3923 C.ar    1  UNL1        0.0516
     14 C           7.8585   40.8256    7.9333 C.ar    1  UNL1        0.1396
     15 C           7.4879   40.0507    6.8229 C.ar    1  UNL1        0.0370
     16 C           8.4296   39.2402    6.1849 C.ar    1  UNL1        0.0044
     17 C           9.7456   39.2003    6.6519 C.ar    1  UNL1        0.0149
     18 O           6.9407   41.6495    8.5935 O.3     1  UNL1       -0.4791
     19 C           5.7707   42.1693    7.9711 C.3     1  UNL1        0.1659
     20 C           6.1170   43.4450    7.2233 C.3     1  UNL1        0.0435
     21 C           5.4212   44.5760    7.9497 C.3     1  UNL1        0.0038
     22 C           4.2639   43.9337    8.6751 C.3     1  UNL1        0.0038
     23 C           4.7424   42.5438    9.0267 C.3     1  UNL1        0.0435
     24 C          17.2223   38.3951   10.1422 C.ar    1  UNL1        0.0539
     25 C          18.4718   38.9590   10.4517 C.ar    1  UNL1        0.0149
     26 C          19.6512   38.2370   10.2491 C.ar    1  UNL1        0.0013
     27 C          19.5959   36.9386    9.7381 C.ar    1  UNL1        0.0001
     28 C          18.3617   36.3619    9.4314 C.ar    1  UNL1        0.0013
     29 C          17.1828   37.0849    9.6343 C.ar    1  UNL1        0.0149
@<TRIPOS>BOND
     1     3     8   am
     2     3     9   am
     3    13    14   ar
     4    14    18    1
     5    19    18    1
     6    19    20    1
     7    20    21    1
     8    21    22    1
     9    22    23    1
    10    23    19    1
    11    15    16   ar
    12    17    12   ar
    13     4     9    1
    14     4     5    1
    15     5    10    1
    16     7     6    1
    17     7     9    1
    18    25    26   ar
    19    27    28   ar
    20    29    24   ar
    21     8    12    1
    22    10     6   am
    23    10    24    1
    24     3     1    2
    25    12    13   ar
    26    14    15   ar
    27    16    17   ar
    28     6     2    2
    29    24    25   ar
    30    26    27   ar
    31    28    29   ar
    32     8    11    1
@<TRIPOS>MOLECULE
MolPort-029-891-160 96136481 CSC046102906 CSSS00046102906 MCULE-3429289033 PubChem-72855602 ZINC000096136481 ZINC96136481
 29 32 0 0 0
SMALL
GASTEIGER

@<TRIPOS>ATOM
      1 O           2.1758   41.7126    9.5722 O.2     1  UNL1       -0.2522
      2 O          -1.3760   41.9167   12.9223 O.2     1  UNL1       -0.2727
      3 C           2.7226   42.1376   10.6266 C.2     1  UNL1        0.3081
      4 C           2.5670   43.1233   12.9219 C.3     1  UNL1        0.1173
      5 C           1.5749   43.7857   13.8749 C.3     1  UNL1        0.1197
      6 C          -0.2284   42.4342   12.8808 C.2     1  UNL1        0.2497
      7 C           0.4486   42.6108   11.5579 C.3     1  UNL1        0.1809
      8 N           4.1537   42.1493   10.7498 N.am    1  UNL1       -0.2680
      9 N           1.9095   42.6100   11.7106 N.am    1  UNL1       -0.2536
     10 N           0.4201   42.9144   14.0723 N.am    1  UNL1       -0.2555
     11 H           4.5192   42.4922   11.5972 H       1  UNL1        0.1564
     12 C           5.1069   41.7150    9.7703 C.ar    1  UNL1        0.0546
     13 C           6.2629   42.4778    9.5730 C.ar    1  UNL1        0.0516
     14 C           7.2207   42.0945    8.6284 C.ar    1  UNL1        0.1396
     15 C           7.0160   40.9285    7.8738 C.ar    1  UNL1        0.0370
     16 C           5.8648   40.1607    8.0639 C.ar    1  UNL1        0.0044
     17 C           4.9135   40.5528    9.0088 C.ar    1  UNL1        0.0149
     18 O           8.3635   42.8846    8.4643 O.3     1  UNL1       -0.4791
     19 C           8.8215   43.8072    9.4470 C.3     1  UNL1        0.1659
     20 C          10.2891   43.5497    9.7407 C.3     1  UNL1        0.0435
     21 C          10.3626   43.0305   11.1605 C.3     1  UNL1        0.0038
     22 C           9.1158   43.5431   11.8392 C.3     1  UNL1        0.0038
     23 C           8.0684   43.5953   10.7508 C.3     1  UNL1        0.0435
     24 C           0.0099   42.5507   15.4091 C.ar    1  UNL1        0.0539
     25 C           0.3004   43.3758   16.5090 C.ar    1  UNL1        0.0149
     26 C          -0.1144   43.0226   17.7961 C.ar    1  UNL1        0.0013
     27 C          -0.8298   41.8407   17.9994 C.ar    1  UNL1        0.0001
     28 C          -1.1316   41.0132   16.9159 C.ar    1  UNL1        0.0013
     29 C          -0.7163   41.3673   15.6291 C.ar    1  UNL1        0.0149
@<TRIPOS>BOND
     1     3     8   am
     2     3     9   am
     3    13    14   ar
     4    14    18    1
     5    19    18    1
     6    19    20    1
     7    20    21    1
     8    21    22    1
     9    22    23    1
    10    23    19    1
    11    15    16   ar
    12    17    12   ar
    13     4     9    1
    14     4     5    1
    15     5    10    1
    16     7     6    1
    17     7     9    1
    18    25    26   ar
    19    27    28   ar
    20    29    24   ar
    21     8    12    1
    22    10     6   am
    23    10    24    1
    24     3     1    2
    25    12    13   ar
    26    14    15   ar
    27    16    17   ar
    28     6     2    2
    29    24    25   ar
    30    26    27   ar
    31    28    29   ar
    32     8    11    1
@<TRIPOS>MOLECULE
MolPort-029-891-160 96136481 CSC046102906 CSSS00046102906 MCULE-3429289033 PubChem-72855602 ZINC000096136481 ZINC96136481
 29 32 0 0 0
SMALL
GASTEIGER

@<TRIPOS>ATOM
      1 O           9.6658   43.2434    9.3605 O.2     1  UNL1       -0.2522
      2 O          13.3056   40.2605   10.6776 O.2     1  UNL1       -0.2727
      3 C           9.5746   42.2366    8.6059 C.2     1  UNL1        0.3081
      4 C          10.5525   40.1593    7.6095 C.3     1  UNL1        0.1173
      5 C          11.8752   39.4112    7.4618 C.3     1  UNL1        0.1197
      6 C          12.5813   40.2997    9.6479 C.2     1  UNL1        0.2497
      7 C          11.8908   41.5771    9.2856 C.3     1  UNL1        0.1809
      8 N           8.3805   42.0069    7.8411 N.am    1  UNL1       -0.2680
      9 N          10.6697   41.3139    8.5129 N.am    1  UNL1       -0.2536
     10 N          12.4521   39.1596    8.7793 N.am    1  UNL1       -0.2555
     11 H           8.3708   41.2037    7.2719 H       1  UNL1        0.1564
     12 C           7.2012   42.8224    7.8182 C.ar    1  UNL1        0.0546
     13 C           6.2764   42.6962    8.8605 C.ar    1  UNL1        0.0516
     14 C           5.1111   43.4698    8.8808 C.ar    1  UNL1        0.1396
     15 C           4.8727   44.3837    7.8421 C.ar    1  UNL1        0.0370
     16 C           5.7903   44.5165    6.7976 C.ar    1  UNL1        0.0044
     17 C           6.9504   43.7383    6.7856 C.ar    1  UNL1        0.0149
     18 O           4.2138   43.3139    9.9427 O.3     1  UNL1       -0.4791
     19 C           3.3251   42.2076   10.0569 C.3     1  UNL1        0.1659
     20 C           2.7759   42.1411   11.4712 C.3     1  UNL1        0.0435
     21 C           3.3472   40.8884   12.0998 C.3     1  UNL1        0.0038
     22 C           3.6889   39.9804   10.9436 C.3     1  UNL1        0.0038
     23 C           4.0776   40.9086    9.8159 C.3     1  UNL1        0.0435
     24 C          12.8236   37.8165    9.1605 C.ar    1  UNL1        0.0539
     25 C          11.9852   37.0321    9.9708 C.ar    1  UNL1        0.0149
     26 C          12.3465   35.7282   10.3212 C.ar    1  UNL1        0.0013
     27 C          13.5502   35.1898    9.8616 C.ar    1  UNL1        0.0001
     28 C          14.3914   35.9544    9.0505 C.ar    1  UNL1        0.0013
     29 C          14.0291   37.2583    8.7007 C.ar    1  UNL1        0.0149
@<TRIPOS>BOND
     1     3     8   am
     2     3     9   am
     3    13    14   ar
     4    14    18    1
     5    19    18    1
     6    19    20    1
     7    20    21    1
     8    21    22    1
     9    22    23    1
    10    23    19    1
    11    15    16   ar
    12    17    12   ar
    13     4     9    1
    14     4     5    1
    15     5    10    1
    16     7     6    1
    17     7     9    1
    18    25    26   ar
    19    27    28   ar
    20    29    24   ar
    21     8    12    1
    22    10     6   am
    23    10    24    1
    24     3     1    2
    25    12    13   ar
    26    14    15   ar
    27    16    17   ar
    28     6     2    2
    29    24    25   ar
    30    26    27   ar
    31    28    29   ar
    32     8    11    1
@<TRIPOS>MOLECULE
MolPort-029-891-160 96136481 CSC046102906 CSSS00046102906 MCULE-3429289033 PubChem-72855602 ZINC000096136481 ZINC96136481
 29 32 0 0 0
SMALL
GASTEIGER

@<TRIPOS>ATOM
      1 O          12.3333   40.4121   11.7666 O.2     1  UNL1       -0.2522
      2 O          15.6791   36.8718   11.3756 O.2     1  UNL1       -0.2727
      3 C          12.1132   39.8528   10.6575 C.2     1  UNL1        0.3081
      4 C          12.8357   38.3574    8.7850 C.3     1  UNL1        0.1173
      5 C          14.0673   37.6476    8.2278 C.3     1  UNL1        0.1197
      6 C          14.9310   37.4198   10.5232 C.2     1  UNL1        0.2497
      7 C          14.3675   38.7768   10.8070 C.3     1  UNL1        0.1809
      8 N          10.8783   40.0812    9.9603 N.am    1  UNL1       -0.2680
      9 N          13.1018   38.9810   10.0901 N.am    1  UNL1       -0.2536
     10 N          14.6556   36.7947    9.2565 N.am    1  UNL1       -0.2555
     11 H          10.7663   39.6155    9.1002 H       1  UNL1        0.1564
     12 C           9.7909   40.9151   10.3833 C.ar    1  UNL1        0.0546
     13 C           9.1340   41.6987    9.4284 C.ar    1  UNL1        0.0516
     14 C           8.0686   42.5284    9.7937 C.ar    1  UNL1        0.1396
     15 C           7.6561   42.5697   11.1350 C.ar    1  UNL1        0.0370
     16 C           8.3060   41.7908   12.0951 C.ar    1  UNL1        0.0044
     17 C           9.3699   40.9666   11.7205 C.ar    1  UNL1        0.0149
     18 O           7.4379   43.2938    8.8071 O.3     1  UNL1       -0.4791
     19 C           6.1854   42.9421    8.2290 C.3     1  UNL1        0.1659
     20 C           5.7662   44.0115    7.2356 C.3     1  UNL1        0.0435
     21 C           4.5471   44.6922    7.8198 C.3     1  UNL1        0.0038
     22 C           3.9400   43.6837    8.7646 C.3     1  UNL1        0.0038
     23 C           5.1110   42.8950    9.3039 C.3     1  UNL1        0.0435
     24 C          14.8957   35.3962    8.9848 C.ar    1  UNL1        0.0539
     25 C          13.8943   34.4324    9.1923 C.ar    1  UNL1        0.0149
     26 C          14.1315   33.0840    8.9115 C.ar    1  UNL1        0.0013
     27 C          15.3733   32.6822    8.4150 C.ar    1  UNL1        0.0001
     28 C          16.3768   33.6286    8.1976 C.ar    1  UNL1        0.0013
     29 C          16.1384   34.9769    8.4787 C.ar    1  UNL1        0.0149
@<TRIPOS>BOND
     1     3     8   am
     2     3     9   am
     3    13    14   ar
     4    14    18    1
     5    19    18    1
     6    19    20    1
     7    20    21    1
     8    21    22    1
     9    22    23    1
    10    23    19    1
    11    15    16   ar
    12    17    12   ar
    13     4     9    1
    14     4     5    1
    15     5    10    1
    16     7     6    1
    17     7     9    1
    18    25    26   ar
    19    27    28   ar
    20    29    24   ar
    21     8    12    1
    22    10     6   am
    23    10    24    1
    24     3     1    2
    25    12    13   ar
    26    14    15   ar
    27    16    17   ar
    28     6     2    2
    29    24    25   ar
    30    26    27   ar
    31    28    29   ar
    32     8    11    1
