@<TRIPOS>MOLECULE
Molport-020-279-139 MCULE-6787132384 PubChem-110255894
 26 28 0 0 0
SMALL
GASTEIGER

@<TRIPOS>ATOM
      1 C           9.4567   41.3691    7.5148 C.ar    1  UNL1        0.0808
      2 C           9.8692   40.3869    8.4239 C.ar    1  UNL1        0.1137
      3 C          12.0764   40.5339    7.5832 C.ar    1  UNL1        0.1332
      4 C          11.6716   41.5166    6.6708 C.ar    1  UNL1        0.1522
      5 N          11.1688   39.9925    8.4369 N.ar    1  UNL1       -0.2382
      6 N          10.3692   41.9072    6.6628 N.ar    1  UNL1       -0.2317
      7 C           5.2432   42.6045    9.7200 C.2     1  UNL1        0.2418
      8 C           5.9449   43.8797    7.6719 C.3     1  UNL1        0.0935
      9 C           6.3849   43.3311    6.3177 C.3     1  UNL1        0.0219
     10 C           7.8464   42.8967    6.3769 C.3     1  UNL1        0.0094
     11 C           8.0370   41.8354    7.4616 C.3     1  UNL1        0.0617
     12 C           7.5848   42.3675    8.8215 C.3     1  UNL1        0.0993
     13 N           6.2277   42.8998    8.7186 N.am    1  UNL1       -0.2780
     14 O           4.1026   43.1388    9.6638 O.2     1  UNL1       -0.2734
     15 C           5.5503   41.6665   10.8419 C.3     1  UNL1        0.1552
     16 C           3.9625   40.1364   11.5917 C.3     1  UNL1        0.0862
     17 N           4.3855   41.5204   11.6966 N.3     1  UNL1       -0.2886
     18 H           4.6282   41.7416   12.6623 H       1  UNL1        0.1237
     19 N          12.5859   42.1228    5.7463 N.pl3   1  UNL1       -0.2821
     20 H          12.4159   41.9543    4.7914 H       1  UNL1        0.1551
     21 C          13.7190   42.9459    6.0540 C.ar    1  UNL1        0.1333
     22 C          14.7133   42.4416    6.8967 C.ar    1  UNL1        0.0345
     23 C          15.8211   43.2337    7.2033 C.ar    1  UNL1        0.0045
     24 C          15.9266   44.5182    6.6680 C.ar    1  UNL1        0.0208
     25 C          14.9154   44.9909    5.8298 C.ar    1  UNL1        0.1003
     26 N          13.8439   44.2034    5.5432 N.ar    1  UNL1       -0.2290
@<TRIPOS>BOND
     1    16    17    1
     2    15    17    1
     3    15     7    1
     4     7    13   am
     5     8    13    1
     6     8     9    1
     7     9    10    1
     8    10    11    1
     9    11    12    1
    10    11     1    1
    11    12    13    1
    12     1     6   ar
    13     2     5   ar
    14     3     4   ar
    15     4    19    1
    16    21    26   ar
    17    22    23   ar
    18    24    25   ar
    19    19    21    1
    20     7    14    2
    21     1     2   ar
    22     3     5   ar
    23     4     6   ar
    24    21    22   ar
    25    23    24   ar
    26    25    26   ar
    27    17    18    1
    28    19    20    1
@<TRIPOS>MOLECULE
Molport-020-279-139 MCULE-6787132384 PubChem-110255894
 26 28 0 0 0
SMALL
GASTEIGER

@<TRIPOS>ATOM
      1 C          11.4688   41.2034    9.9514 C.ar    1  UNL1        0.0808
      2 C          11.9825   40.3124   10.9020 C.ar    1  UNL1        0.1137
      3 C          14.0132   40.1915    9.6931 C.ar    1  UNL1        0.1332
      4 C          13.5065   41.0820    8.7379 C.ar    1  UNL1        0.1522
      5 N          13.2422   39.8276   10.7508 N.ar    1  UNL1       -0.2382
      6 N          12.2448   41.5638    8.8951 N.ar    1  UNL1       -0.2317
      7 C           6.9825   42.0390    8.1297 C.2     1  UNL1        0.2418
      8 C           7.2082   41.5365   10.5812 C.3     1  UNL1        0.0935
      9 C           8.1449   42.1808   11.5990 C.3     1  UNL1        0.0219
     10 C           9.5393   41.5713   11.4886 C.3     1  UNL1        0.0094
     11 C          10.0876   41.7632   10.0739 C.3     1  UNL1        0.0617
     12 C           9.1497   41.1354    9.0427 C.3     1  UNL1        0.0993
     13 N           7.7897   41.6311    9.2438 N.am    1  UNL1       -0.2780
     14 O           5.7831   42.3837    8.3091 O.2     1  UNL1       -0.2734
     15 C           7.5440   42.0604    6.7452 C.3     1  UNL1        0.1552
     16 C           6.8544   39.8914    6.2509 C.3     1  UNL1        0.0862
     17 N           6.7005   41.2796    5.8578 N.3     1  UNL1       -0.2886
     18 H           5.7266   41.5668    5.9555 H       1  UNL1        0.1237
     19 N          14.2751   41.5008    7.6013 N.pl3   1  UNL1       -0.2821
     20 H          13.9875   41.1503    6.7275 H       1  UNL1        0.1551
     21 C          15.4143   42.3716    7.5924 C.ar    1  UNL1        0.1333
     22 C          16.5476   42.0113    8.3266 C.ar    1  UNL1        0.0345
     23 C          17.6627   42.8511    8.3253 C.ar    1  UNL1        0.0045
     24 C          17.6373   44.0392    7.5939 C.ar    1  UNL1        0.0208
     25 C          16.4892   44.3688    6.8715 C.ar    1  UNL1        0.1003
     26 N          15.4129   43.5370    6.8856 N.ar    1  UNL1       -0.2290
@<TRIPOS>BOND
     1    16    17    1
     2    15    17    1
     3    15     7    1
     4     7    13   am
     5     8    13    1
     6     8     9    1
     7     9    10    1
     8    10    11    1
     9    11    12    1
    10    11     1    1
    11    12    13    1
    12     1     6   ar
    13     2     5   ar
    14     3     4   ar
    15     4    19    1
    16    21    26   ar
    17    22    23   ar
    18    24    25   ar
    19    19    21    1
    20     7    14    2
    21     1     2   ar
    22     3     5   ar
    23     4     6   ar
    24    21    22   ar
    25    23    24   ar
    26    25    26   ar
    27    17    18    1
    28    19    20    1
@<TRIPOS>MOLECULE
Molport-020-279-139 MCULE-6787132384 PubChem-110255894
 26 28 0 0 0
SMALL
GASTEIGER

@<TRIPOS>ATOM
      1 C          12.6255   39.9224    9.8256 C.ar    1  UNL1        0.0808
      2 C          12.6893   39.1997   11.0236 C.ar    1  UNL1        0.1137
      3 C          15.0507   39.3512   10.9907 C.ar    1  UNL1        0.1332
      4 C          14.9953   40.0743    9.7923 C.ar    1  UNL1        0.1522
      5 N          13.8999   38.9313   11.5779 N.ar    1  UNL1       -0.2382
      6 N          13.7804   40.3400    9.2425 N.ar    1  UNL1       -0.2317
      7 C           8.3305   42.3074    9.7350 C.2     1  UNL1        0.2418
      8 C           9.5380   41.9263    7.5647 C.3     1  UNL1        0.0935
      9 C          10.1109   40.6235    7.0144 C.3     1  UNL1        0.0219
     10 C          11.4639   40.3322    7.6568 C.3     1  UNL1        0.0094
     11 C          11.3169   40.2417    9.1764 C.3     1  UNL1        0.0617
     12 C          10.7288   41.5359    9.7389 C.3     1  UNL1        0.0993
     13 N           9.4990   41.8723    9.0246 N.am    1  UNL1       -0.2780
     14 O           7.3047   42.6756    9.1014 O.2     1  UNL1       -0.2734
     15 C           8.3090   42.3342   11.2288 C.3     1  UNL1        0.1552
     16 C           6.2703   41.2654   11.5840 C.3     1  UNL1        0.0862
     17 N           7.7054   41.1148   11.7362 N.3     1  UNL1       -0.2886
     18 H           8.0333   40.3110   11.2007 H       1  UNL1        0.1237
     19 N          16.1774   40.5425    9.1280 N.pl3   1  UNL1       -0.2821
     20 H          16.9335   39.9132    9.0885 H       1  UNL1        0.1551
     21 C          16.3839   41.8223    8.5149 C.ar    1  UNL1        0.1333
     22 C          15.5313   42.2240    7.4829 C.ar    1  UNL1        0.0345
     23 C          15.7225   43.4678    6.8787 C.ar    1  UNL1        0.0045
     24 C          16.7594   44.2970    7.3080 C.ar    1  UNL1        0.0208
     25 C          17.5926   43.8649    8.3413 C.ar    1  UNL1        0.1003
     26 N          17.3897   42.6493    8.9173 N.ar    1  UNL1       -0.2290
@<TRIPOS>BOND
     1    16    17    1
     2    15    17    1
     3    15     7    1
     4     7    13   am
     5     8    13    1
     6     8     9    1
     7     9    10    1
     8    10    11    1
     9    11    12    1
    10    11     1    1
    11    12    13    1
    12     1     6   ar
    13     2     5   ar
    14     3     4   ar
    15     4    19    1
    16    21    26   ar
    17    22    23   ar
    18    24    25   ar
    19    19    21    1
    20     7    14    2
    21     1     2   ar
    22     3     5   ar
    23     4     6   ar
    24    21    22   ar
    25    23    24   ar
    26    25    26   ar
    27    17    18    1
    28    19    20    1
@<TRIPOS>MOLECULE
Molport-020-279-139 MCULE-6787132384 PubChem-110255894
 26 28 0 0 0
SMALL
GASTEIGER

@<TRIPOS>ATOM
      1 C          11.9698   39.8191    8.6524 C.ar    1  UNL1        0.0808
      2 C          11.5907   39.5459    9.9727 C.ar    1  UNL1        0.1137
      3 C          13.8243   39.8724   10.6828 C.ar    1  UNL1        0.1332
      4 C          14.2114   40.1465    9.3649 C.ar    1  UNL1        0.1522
      5 N          12.5263   39.5790   10.9566 N.ar    1  UNL1       -0.2382
      6 N          13.2699   40.1119    8.3844 N.ar    1  UNL1       -0.2317
      7 C           7.6202   41.0509    6.7268 C.2     1  UNL1        0.2418
      8 C           9.6224   40.9630    5.2112 C.3     1  UNL1        0.0935
      9 C          10.6432   39.8399    5.0527 C.3     1  UNL1        0.0219
     10 C          11.6723   39.9032    6.1774 C.3     1  UNL1        0.0094
     11 C          10.9765   39.7939    7.5349 C.3     1  UNL1        0.0617
     12 C           9.9394   40.9049    7.6999 C.3     1  UNL1        0.0993
     13 N           9.0378   40.9154    6.5497 N.am    1  UNL1       -0.2780
     14 O           6.8628   41.1441    5.7233 O.2     1  UNL1       -0.2734
     15 C           7.0198   41.0863    8.0946 C.3     1  UNL1        0.1552
     16 C           5.2935   42.5105    8.7398 C.3     1  UNL1        0.0862
     17 N           5.5863   41.2973    7.9996 N.3     1  UNL1       -0.2886
     18 H           5.3108   41.4058    7.0235 H       1  UNL1        0.1237
     19 N          15.5670   40.4620    9.0175 N.pl3   1  UNL1       -0.2821
     20 H          16.2323   39.7522    9.1687 H       1  UNL1        0.1551
     21 C          16.0640   41.6929    8.4751 C.ar    1  UNL1        0.1333
     22 C          15.3014   42.3677    7.5179 C.ar    1  UNL1        0.0345
     23 C          15.7750   43.5669    6.9829 C.ar    1  UNL1        0.0045
     24 C          17.0015   44.0805    7.4063 C.ar    1  UNL1        0.0208
     25 C          17.7377   43.3810    8.3640 C.ar    1  UNL1        0.1003
     26 N          17.2589   42.2140    8.8732 N.ar    1  UNL1       -0.2290
@<TRIPOS>BOND
     1    16    17    1
     2    15    17    1
     3    15     7    1
     4     7    13   am
     5     8    13    1
     6     8     9    1
     7     9    10    1
     8    10    11    1
     9    11    12    1
    10    11     1    1
    11    12    13    1
    12     1     6   ar
    13     2     5   ar
    14     3     4   ar
    15     4    19    1
    16    21    26   ar
    17    22    23   ar
    18    24    25   ar
    19    19    21    1
    20     7    14    2
    21     1     2   ar
    22     3     5   ar
    23     4     6   ar
    24    21    22   ar
    25    23    24   ar
    26    25    26   ar
    27    17    18    1
    28    19    20    1
@<TRIPOS>MOLECULE
Molport-020-279-139 MCULE-6787132384 PubChem-110255894
 26 28 0 0 0
SMALL
GASTEIGER

@<TRIPOS>ATOM
      1 C           8.3369   43.1269    9.0408 C.ar    1  UNL1        0.0808
      2 C           8.8526   44.1939    9.7870 C.ar    1  UNL1        0.1137
      3 C          10.9588   43.1182    9.8717 C.ar    1  UNL1        0.1332
      4 C          10.4504   42.0471    9.1259 C.ar    1  UNL1        0.1522
      5 N          10.1510   44.1647   10.1847 N.ar    1  UNL1       -0.2382
      6 N           9.1498   42.0824    8.7306 N.ar    1  UNL1       -0.2317
      7 C           3.6860   41.6014    9.4715 C.2     1  UNL1        0.2418
      8 C           4.1106   43.9617    8.7218 C.3     1  UNL1        0.0935
      9 C           5.0332   44.4520    7.6098 C.3     1  UNL1        0.0219
     10 C           6.4752   44.4988    8.1063 C.3     1  UNL1        0.0094
     11 C           6.9141   43.1128    8.5811 C.3     1  UNL1        0.0617
     12 C           5.9877   42.6030    9.6852 C.3     1  UNL1        0.0993
     13 N           4.5974   42.6859    9.2425 N.am    1  UNL1       -0.2780
     14 O           2.4698   41.7199    9.1611 O.2     1  UNL1       -0.2734
     15 C           4.1578   40.3209   10.0801 C.3     1  UNL1        0.1552
     16 C           3.4644   41.1889   12.1272 C.3     1  UNL1        0.0862
     17 N           3.3788   40.0223   11.2687 N.3     1  UNL1       -0.2886
     18 H           2.4072   39.8421   11.0161 H       1  UNL1        0.1237
     19 N          11.2567   40.9163    8.7666 N.pl3   1  UNL1       -0.2821
     20 H          10.9420   40.3817    8.0022 H       1  UNL1        0.1551
     21 C          12.4687   40.4756    9.3936 C.ar    1  UNL1        0.1333
     22 C          12.4013   39.8904   10.6609 C.ar    1  UNL1        0.0345
     23 C          13.5746   39.4574   11.2811 C.ar    1  UNL1        0.0045
     24 C          14.8009   39.6118   10.6333 C.ar    1  UNL1        0.0208
     25 C          14.8324   40.2004    9.3679 C.ar    1  UNL1        0.1003
     26 N          13.6779   40.6158    8.7805 N.ar    1  UNL1       -0.2290
@<TRIPOS>BOND
     1    16    17    1
     2    15    17    1
     3    15     7    1
     4     7    13   am
     5     8    13    1
     6     8     9    1
     7     9    10    1
     8    10    11    1
     9    11    12    1
    10    11     1    1
    11    12    13    1
    12     1     6   ar
    13     2     5   ar
    14     3     4   ar
    15     4    19    1
    16    21    26   ar
    17    22    23   ar
    18    24    25   ar
    19    19    21    1
    20     7    14    2
    21     1     2   ar
    22     3     5   ar
    23     4     6   ar
    24    21    22   ar
    25    23    24   ar
    26    25    26   ar
    27    17    18    1
    28    19    20    1
@<TRIPOS>MOLECULE
Molport-020-279-139 MCULE-6787132384 PubChem-110255894
 26 28 0 0 0
SMALL
GASTEIGER

@<TRIPOS>ATOM
      1 C          14.5458   41.6616    8.0459 C.ar    1  UNL1        0.0808
      2 C          15.3457   42.7754    7.7614 C.ar    1  UNL1        0.1137
      3 C          13.8416   43.4206    6.0522 C.ar    1  UNL1        0.1332
      4 C          13.0364   42.3088    6.3305 C.ar    1  UNL1        0.1522
      5 N          14.9750   43.6286    6.7718 N.ar    1  UNL1       -0.2382
      6 N          13.4129   41.4585    7.3226 N.ar    1  UNL1       -0.2317
      7 C          13.7267   37.5443   10.5995 C.2     1  UNL1        0.2418
      8 C          16.1022   38.2006   10.1097 C.3     1  UNL1        0.0935
      9 C          16.7802   39.5481   10.3391 C.3     1  UNL1        0.0219
     10 C          16.4287   40.5118    9.2096 C.3     1  UNL1        0.0094
     11 C          14.9124   40.6935    9.1250 C.3     1  UNL1        0.0617
     12 C          14.2196   39.3477    8.9108 C.3     1  UNL1        0.0993
     13 N          14.6655   38.3943    9.9247 N.am    1  UNL1       -0.2780
     14 O          14.1341   36.6681   11.4092 O.2     1  UNL1       -0.2734
     15 C          12.2589   37.6793   10.3547 C.3     1  UNL1        0.1552
     16 C          10.6177   37.9669    8.7273 C.3     1  UNL1        0.0862
     17 N          11.9752   37.5013    8.9418 N.3     1  UNL1       -0.2886
     18 H          12.6274   38.0489    8.3805 H       1  UNL1        0.1237
     19 N          11.8295   42.0393    5.6034 N.pl3   1  UNL1       -0.2821
     20 H          11.8470   42.2401    4.6397 H       1  UNL1        0.1551
     21 C          10.6005   41.5108    6.1195 C.ar    1  UNL1        0.1333
     22 C          10.1771   41.9017    7.3928 C.ar    1  UNL1        0.0345
     23 C           8.9823   41.3939    7.9056 C.ar    1  UNL1        0.0045
     24 C           8.2228   40.5032    7.1460 C.ar    1  UNL1        0.0208
     25 C           8.6747   40.1335    5.8780 C.ar    1  UNL1        0.1003
     26 N           9.8418   40.6396    5.3961 N.ar    1  UNL1       -0.2290
@<TRIPOS>BOND
     1    16    17    1
     2    15    17    1
     3    15     7    1
     4     7    13   am
     5     8    13    1
     6     8     9    1
     7     9    10    1
     8    10    11    1
     9    11    12    1
    10    11     1    1
    11    12    13    1
    12     1     6   ar
    13     2     5   ar
    14     3     4   ar
    15     4    19    1
    16    21    26   ar
    17    22    23   ar
    18    24    25   ar
    19    19    21    1
    20     7    14    2
    21     1     2   ar
    22     3     5   ar
    23     4     6   ar
    24    21    22   ar
    25    23    24   ar
    26    25    26   ar
    27    17    18    1
    28    19    20    1
@<TRIPOS>MOLECULE
Molport-020-279-139 MCULE-6787132384 PubChem-110255894
 26 28 0 0 0
SMALL
GASTEIGER

@<TRIPOS>ATOM
      1 C          12.7421   41.9806    7.2120 C.ar    1  UNL1        0.0808
      2 C          13.3364   42.9875    6.4410 C.ar    1  UNL1        0.1137
      3 C          15.4494   42.4433    7.3568 C.ar    1  UNL1        0.1332
      4 C          14.8626   41.4345    8.1314 C.ar    1  UNL1        0.1522
      5 N          14.6756   43.1951    6.5313 N.ar    1  UNL1       -0.2382
      6 N          13.5214   41.2316    8.0364 N.ar    1  UNL1       -0.2317
      7 C           8.8692   39.6260    5.3145 C.2     1  UNL1        0.2418
      8 C           8.8650   40.1591    7.7700 C.3     1  UNL1        0.0935
      9 C           9.1435   41.4962    8.4505 C.3     1  UNL1        0.0219
     10 C          10.6477   41.7345    8.5440 C.3     1  UNL1        0.0094
     11 C          11.2720   41.7147    7.1480 C.3     1  UNL1        0.0617
     12 C          10.9866   40.3854    6.4489 C.3     1  UNL1        0.0993
     13 N           9.5523   40.1069    6.4813 N.am    1  UNL1       -0.2780
     14 O           7.6508   39.3090    5.3797 O.2     1  UNL1       -0.2734
     15 C           9.5852   39.4906    4.0100 C.3     1  UNL1        0.1552
     16 C           9.9099   37.3171    3.2385 C.3     1  UNL1        0.0862
     17 N           8.9805   38.4313    3.2221 N.3     1  UNL1       -0.2886
     18 H           8.0898   38.1521    3.6332 H       1  UNL1        0.1237
     19 N          15.6301   40.6104    9.0200 N.pl3   1  UNL1       -0.2821
     20 H          16.5637   40.8841    9.1711 H       1  UNL1        0.1551
     21 C          15.1933   39.4337    9.7132 C.ar    1  UNL1        0.1333
     22 C          14.4710   39.5766   10.9012 C.ar    1  UNL1        0.0345
     23 C          14.0403   38.4383   11.5847 C.ar    1  UNL1        0.0045
     24 C          14.3334   37.1713   11.0787 C.ar    1  UNL1        0.0208
     25 C          15.0568   37.0643    9.8896 C.ar    1  UNL1        0.1003
     26 N          15.4674   38.1858    9.2384 N.ar    1  UNL1       -0.2290
@<TRIPOS>BOND
     1    16    17    1
     2    15    17    1
     3    15     7    1
     4     7    13   am
     5     8    13    1
     6     8     9    1
     7     9    10    1
     8    10    11    1
     9    11    12    1
    10    11     1    1
    11    12    13    1
    12     1     6   ar
    13     2     5   ar
    14     3     4   ar
    15     4    19    1
    16    21    26   ar
    17    22    23   ar
    18    24    25   ar
    19    19    21    1
    20     7    14    2
    21     1     2   ar
    22     3     5   ar
    23     4     6   ar
    24    21    22   ar
    25    23    24   ar
    26    25    26   ar
    27    17    18    1
    28    19    20    1
@<TRIPOS>MOLECULE
Molport-020-279-139 MCULE-6787132384 PubChem-110255894
 26 28 0 0 0
SMALL
GASTEIGER

@<TRIPOS>ATOM
      1 C          11.4530   40.0727    8.8414 C.ar    1  UNL1        0.0808
      2 C          12.0366   39.6805   10.0526 C.ar    1  UNL1        0.1137
      3 C          14.0824   40.6667    9.3874 C.ar    1  UNL1        0.1332
      4 C          13.5060   41.0622    8.1736 C.ar    1  UNL1        0.1522
      5 N          13.3371   39.9867   10.2972 N.ar    1  UNL1       -0.2382
      6 N          12.2036   40.7528    7.9348 N.ar    1  UNL1       -0.2317
      7 C           6.6807   41.2427    8.8498 C.2     1  UNL1        0.2418
      8 C           7.6003   39.9667    6.8904 C.3     1  UNL1        0.0935
      9 C           8.4450   38.6960    6.8984 C.3     1  UNL1        0.0219
     10 C           9.9048   39.0376    7.1821 C.3     1  UNL1        0.0094
     11 C          10.0256   39.7580    8.5258 C.3     1  UNL1        0.0617
     12 C           9.1710   41.0256    8.5364 C.3     1  UNL1        0.0993
     13 N           7.8028   40.7036    8.1361 N.am    1  UNL1       -0.2780
     14 O           5.5075   41.0259    8.4424 O.2     1  UNL1       -0.2734
     15 C           6.8807   42.0676   10.0796 C.3     1  UNL1        0.1552
     16 C           7.9416   41.4691   12.0648 C.3     1  UNL1        0.0862
     17 N           6.7574   41.2317   11.2606 N.3     1  UNL1       -0.2886
     18 H           5.9199   41.4852   11.7848 H       1  UNL1        0.1237
     19 N          14.2447   41.7818    7.1764 N.pl3   1  UNL1       -0.2821
     20 H          13.8832   41.7537    6.2612 H       1  UNL1        0.1551
     21 C          15.4495   42.5374    7.3603 C.ar    1  UNL1        0.1333
     22 C          16.4306   42.0471    8.2264 C.ar    1  UNL1        0.0345
     23 C          17.6077   42.7739    8.4132 C.ar    1  UNL1        0.0045
     24 C          17.7947   43.9799    7.7364 C.ar    1  UNL1        0.0208
     25 C          16.7945   44.4407    6.8787 C.ar    1  UNL1        0.1003
     26 N          15.6546   43.7177    6.7101 N.ar    1  UNL1       -0.2290
@<TRIPOS>BOND
     1    16    17    1
     2    15    17    1
     3    15     7    1
     4     7    13   am
     5     8    13    1
     6     8     9    1
     7     9    10    1
     8    10    11    1
     9    11    12    1
    10    11     1    1
    11    12    13    1
    12     1     6   ar
    13     2     5   ar
    14     3     4   ar
    15     4    19    1
    16    21    26   ar
    17    22    23   ar
    18    24    25   ar
    19    19    21    1
    20     7    14    2
    21     1     2   ar
    22     3     5   ar
    23     4     6   ar
    24    21    22   ar
    25    23    24   ar
    26    25    26   ar
    27    17    18    1
    28    19    20    1
@<TRIPOS>MOLECULE
Molport-020-279-139 MCULE-6787132384 PubChem-110255894
 26 28 0 0 0
SMALL
GASTEIGER

@<TRIPOS>ATOM
      1 C          12.1495   40.6124    9.3364 C.ar    1  UNL1        0.0808
      2 C          12.0215   39.7938   10.4656 C.ar    1  UNL1        0.1137
      3 C          14.3764   39.5988   10.5926 C.ar    1  UNL1        0.1332
      4 C          14.5128   40.4166    9.4637 C.ar    1  UNL1        0.1522
      5 N          13.1374   39.3064   11.0671 N.ar    1  UNL1       -0.2382
      6 N          13.3917   40.9014    8.8661 N.ar    1  UNL1       -0.2317
      7 C           8.7206   40.4004    5.8234 C.2     1  UNL1        0.2418
      8 C           8.0756   41.3044    8.0773 C.3     1  UNL1        0.0935
      9 C           8.7735   42.3821    8.9019 C.3     1  UNL1        0.0219
     10 C           9.9700   41.7872    9.6384 C.3     1  UNL1        0.0094
     11 C          10.9508   41.1719    8.6391 C.3     1  UNL1        0.0617
     12 C          10.2595   40.1008    7.7954 C.3     1  UNL1        0.0993
     13 N           9.0428   40.6488    7.1995 N.am    1  UNL1       -0.2780
     14 O           7.6271   40.8071    5.3456 O.2     1  UNL1       -0.2734
     15 C           9.6677   39.6581    4.9377 C.3     1  UNL1        0.1552
     16 C           9.4951   38.3049    3.0499 C.3     1  UNL1        0.0862
     17 N           9.1420   39.6066    3.5851 N.3     1  UNL1       -0.2886
     18 H           8.1282   39.7183    3.5974 H       1  UNL1        0.1237
     19 N          15.7952   40.7581    8.9189 N.pl3   1  UNL1       -0.2821
     20 H          16.4989   40.0743    8.9990 H       1  UNL1        0.1551
     21 C          16.1693   41.9814    8.2712 C.ar    1  UNL1        0.1333
     22 C          17.3290   42.6409    8.6878 C.ar    1  UNL1        0.0345
     23 C          17.7033   43.8326    8.0645 C.ar    1  UNL1        0.0045
     24 C          16.9196   44.3541    7.0343 C.ar    1  UNL1        0.0208
     25 C          15.7676   43.6699    6.6429 C.ar    1  UNL1        0.1003
     26 N          15.4199   42.5101    7.2629 N.ar    1  UNL1       -0.2290
@<TRIPOS>BOND
     1    16    17    1
     2    15    17    1
     3    15     7    1
     4     7    13   am
     5     8    13    1
     6     8     9    1
     7     9    10    1
     8    10    11    1
     9    11    12    1
    10    11     1    1
    11    12    13    1
    12     1     6   ar
    13     2     5   ar
    14     3     4   ar
    15     4    19    1
    16    21    26   ar
    17    22    23   ar
    18    24    25   ar
    19    19    21    1
    20     7    14    2
    21     1     2   ar
    22     3     5   ar
    23     4     6   ar
    24    21    22   ar
    25    23    24   ar
    26    25    26   ar
    27    17    18    1
    28    19    20    1
@<TRIPOS>MOLECULE
Molport-020-279-139 MCULE-6787132384 PubChem-110255894
 26 28 0 0 0
SMALL
GASTEIGER

@<TRIPOS>ATOM
      1 C          12.9618   40.8149    8.1764 C.ar    1  UNL1        0.0808
      2 C          13.4013   40.1630    9.3354 C.ar    1  UNL1        0.1137
      3 C          11.7102   38.5307    9.0601 C.ar    1  UNL1        0.1332
      4 C          11.2645   39.1770    7.9001 C.ar    1  UNL1        0.1522
      5 N          12.7656   39.0366    9.7499 N.ar    1  UNL1       -0.2382
      6 N          11.9053   40.3041    7.4903 N.ar    1  UNL1       -0.2317
      7 C          16.9615   43.5973    7.5404 C.2     1  UNL1        0.2418
      8 C          15.2110   43.5819    5.7380 C.3     1  UNL1        0.0935
      9 C          13.7061   43.7934    5.8758 C.3     1  UNL1        0.0219
     10 C          13.0355   42.5052    6.3437 C.3     1  UNL1        0.0094
     11 C          13.6285   42.0582    7.6807 C.3     1  UNL1        0.0617
     12 C          15.1392   41.8578    7.5601 C.3     1  UNL1        0.0993
     13 N          15.7533   43.0544    6.9884 N.am    1  UNL1       -0.2780
     14 O          17.5263   44.5785    6.9857 O.2     1  UNL1       -0.2734
     15 C          17.5699   43.0122    8.7734 C.3     1  UNL1        0.1552
     16 C          18.9113   41.4313    7.7122 C.3     1  UNL1        0.0862
     17 N          17.7706   41.5850    8.5958 N.3     1  UNL1       -0.2886
     18 H          17.9602   41.1421    9.4949 H       1  UNL1        0.1237
     19 N          10.1557   38.6883    7.1322 N.pl3   1  UNL1       -0.2821
     20 H          10.3005   37.8450    6.6453 H       1  UNL1        0.1551
     21 C           8.8605   39.2876    6.9928 C.ar    1  UNL1        0.1333
     22 C           8.5637   40.4376    7.7295 C.ar    1  UNL1        0.0345
     23 C           7.3061   41.0299    7.6019 C.ar    1  UNL1        0.0045
     24 C           6.3587   40.4713    6.7431 C.ar    1  UNL1        0.0208
     25 C           6.6879   39.3223    6.0220 C.ar    1  UNL1        0.1003
     26 N           7.9189   38.7602    6.1603 N.ar    1  UNL1       -0.2290
@<TRIPOS>BOND
     1    16    17    1
     2    15    17    1
     3    15     7    1
     4     7    13   am
     5     8    13    1
     6     8     9    1
     7     9    10    1
     8    10    11    1
     9    11    12    1
    10    11     1    1
    11    12    13    1
    12     1     6   ar
    13     2     5   ar
    14     3     4   ar
    15     4    19    1
    16    21    26   ar
    17    22    23   ar
    18    24    25   ar
    19    19    21    1
    20     7    14    2
    21     1     2   ar
    22     3     5   ar
    23     4     6   ar
    24    21    22   ar
    25    23    24   ar
    26    25    26   ar
    27    17    18    1
    28    19    20    1
