@<TRIPOS>MOLECULE
MolPort-003-049-136 11758562 CSSS03437040344 MCULE-6217627162 PubChem-18554452 ZINC000011758562 ZINC11758562
 29 32 0 0 0
SMALL
GASTEIGER

@<TRIPOS>ATOM
      1 C          10.3888   41.1428    8.2943 C.ar    1  UNL1        0.1313
      2 C          10.6574   39.8104    8.5709 C.ar    1  UNL1        0.1632
      3 C          11.3180   39.4727    9.6950 C.ar    1  UNL1        0.1843
      4 C          11.5056   41.7015   10.3336 C.ar    1  UNL1        0.2008
      5 N          10.3454   38.6886    7.8936 N.ar    1  UNL1       -0.1251
      6 N          10.8292   37.6838    8.6281 N.ar    1  UNL1       -0.0621
      7 N          11.4288   38.1419    9.7239 N.ar    1  UNL1       -0.2102
      8 N          11.7552   40.3816   10.5982 N.ar    1  UNL1       -0.2034
      9 N          10.8313   42.0722    9.1946 N.ar    1  UNL1       -0.2159
     10 C          12.0316   37.3174   10.7592 C.3     1  UNL1        0.1572
     11 C          13.5174   37.3918   10.6785 C.ar    1  UNL1        0.0023
     12 C          14.2393   38.0974   11.6476 C.ar    1  UNL1       -0.0015
     13 C          15.6341   38.1594   11.5733 C.ar    1  UNL1        0.0111
     14 C          16.3078   37.5142   10.5316 C.ar    1  UNL1        0.0577
     15 C          15.5877   36.8018    9.5676 C.ar    1  UNL1        0.0111
     16 C          14.1932   36.7385    9.6424 C.ar    1  UNL1       -0.0015
     17 CL         18.0538   37.5839   10.4437 Cl      1  UNL1       -0.0822
     18 S           9.4916   41.6404    6.8240 S.3     1  UNL1       -0.0834
     19 C          10.8334   41.1675    5.6831 C.3     1  UNL1        0.1487
     20 C          12.1435   41.6986    6.1531 C.2     1  UNL1        0.2386
     21 N          12.4757   43.0657    5.8898 N.am    1  UNL1       -0.2660
     22 O          12.9456   40.9386    6.7586 O.2     1  UNL1       -0.2738
     23 H          11.7583   43.6468    5.5477 H       1  UNL1        0.1564
     24 C          17.1457   44.0393    7.2417 C.3     1  UNL1        0.0754
     25 C          15.7819   44.0826    6.6529 C.ar    1  UNL1        0.1562
     26 C          14.7994   43.1304    6.8376 C.ar    1  UNL1        0.0734
     27 C          13.7641   43.6580    6.0826 C.ar    1  UNL1        0.1760
     28 N          14.1232   44.8171    5.5032 N.ar    1  UNL1       -0.0621
     29 O          15.3463   45.0428    5.8747 O.2     1  UNL1       -0.3565
@<TRIPOS>BOND
     1    24    25    1
     2    25    29   ar
     3    26    27   ar
     4    27    21    1
     5    19    20    1
     6    19    18    1
     7     1    18    1
     8     1     9   ar
     9     2     5   ar
    10    10     7    1
    11    10    11    1
    12    12    13   ar
    13    14    17    1
    14    14    15   ar
    15    16    11   ar
    16     3     2   ar
    17     4     8   ar
    18    21    20   am
    19     7     6   ar
    20     7     3   ar
    21    28    29   ar
    22    25    26   ar
    23    27    28   ar
    24    20    22    2
    25     1     2   ar
    26    11    12   ar
    27    13    14   ar
    28    15    16   ar
    29     3     8   ar
    30     4     9   ar
    31     5     6   ar
    32    21    23    1
@<TRIPOS>MOLECULE
MolPort-003-049-136 11758562 CSSS03437040344 MCULE-6217627162 PubChem-18554452 ZINC000011758562 ZINC11758562
 29 32 0 0 0
SMALL
GASTEIGER

@<TRIPOS>ATOM
      1 C           9.5264   40.0214    6.4362 C.ar    1  UNL1        0.1313
      2 C           9.2088   40.6353    7.6388 C.ar    1  UNL1        0.1632
      3 C           7.9284   40.6894    8.0532 C.ar    1  UNL1        0.1843
      4 C           7.1957   39.5700    6.1505 C.ar    1  UNL1        0.2008
      5 N           9.9930   41.2197    8.5650 N.ar    1  UNL1       -0.1251
      6 N           9.1632   41.6213    9.5311 N.ar    1  UNL1       -0.0621
      7 N           7.9036   41.3125    9.2344 N.ar    1  UNL1       -0.2102
      8 N           6.8982   40.1706    7.3443 N.ar    1  UNL1       -0.2034
      9 N           8.4945   39.4995    5.7062 N.ar    1  UNL1       -0.2159
     10 C           6.7521   41.5724   10.0839 C.3     1  UNL1        0.1572
     11 C           5.8327   42.5419    9.4247 C.ar    1  UNL1        0.0023
     12 C           4.4525   42.4602    9.6413 C.ar    1  UNL1       -0.0015
     13 C           3.5928   43.3758    9.0270 C.ar    1  UNL1        0.0111
     14 C           4.1125   44.3747    8.1980 C.ar    1  UNL1        0.0577
     15 C           5.4922   44.4623    7.9878 C.ar    1  UNL1        0.0111
     16 C           6.3522   43.5477    8.6030 C.ar    1  UNL1       -0.0015
     17 CL          3.0377   45.5264    7.4367 Cl      1  UNL1       -0.0822
     18 S          11.2179   39.9024    5.8539 S.3     1  UNL1       -0.0834
     19 C          11.4095   41.7025    5.6331 C.3     1  UNL1        0.1487
     20 C          12.7177   42.1685    6.1724 C.2     1  UNL1        0.2386
     21 N          13.2454   43.4237    5.7311 N.am    1  UNL1       -0.2660
     22 O          13.3480   41.4494    6.9928 O.2     1  UNL1       -0.2738
     23 H          12.6478   44.0061    5.2087 H       1  UNL1        0.1564
     24 C          17.8646   44.0653    7.4150 C.3     1  UNL1        0.0754
     25 C          16.5672   44.1820    6.6999 C.ar    1  UNL1        0.1562
     26 C          15.4757   43.3562    6.8815 C.ar    1  UNL1        0.0734
     27 C          14.5697   43.9023    5.9864 C.ar    1  UNL1        0.1760
     28 N          15.0987   44.9534    5.3357 N.ar    1  UNL1       -0.0621
     29 O          16.3039   45.0943    5.7967 O.2     1  UNL1       -0.3565
@<TRIPOS>BOND
     1    24    25    1
     2    25    29   ar
     3    26    27   ar
     4    27    21    1
     5    19    20    1
     6    19    18    1
     7     1    18    1
     8     1     9   ar
     9     2     5   ar
    10    10     7    1
    11    10    11    1
    12    12    13   ar
    13    14    17    1
    14    14    15   ar
    15    16    11   ar
    16     3     2   ar
    17     4     8   ar
    18    21    20   am
    19     7     6   ar
    20     7     3   ar
    21    28    29   ar
    22    25    26   ar
    23    27    28   ar
    24    20    22    2
    25     1     2   ar
    26    11    12   ar
    27    13    14   ar
    28    15    16   ar
    29     3     8   ar
    30     4     9   ar
    31     5     6   ar
    32    21    23    1
@<TRIPOS>MOLECULE
MolPort-003-049-136 11758562 CSSS03437040344 MCULE-6217627162 PubChem-18554452 ZINC000011758562 ZINC11758562
 29 32 0 0 0
SMALL
GASTEIGER

@<TRIPOS>ATOM
      1 C          10.7346   41.2180    9.9211 C.ar    1  UNL1        0.1313
      2 C           9.6324   40.9798    9.1132 C.ar    1  UNL1        0.1632
      3 C           8.6959   41.9336    8.9483 C.ar    1  UNL1        0.1843
      4 C           9.8395   43.3928   10.3530 C.ar    1  UNL1        0.2008
      5 N           9.2919   39.9017    8.3811 N.ar    1  UNL1       -0.1251
      6 N           8.1435   40.2270    7.7822 N.ar    1  UNL1       -0.0621
      7 N           7.7631   41.4564    8.1198 N.ar    1  UNL1       -0.2102
      8 N           8.7619   43.1471    9.5450 N.ar    1  UNL1       -0.2034
      9 N          10.8103   42.4371   10.5360 N.ar    1  UNL1       -0.2159
     10 C           6.5790   42.1368    7.6200 C.3     1  UNL1        0.1572
     11 C           5.5194   42.1652    8.6669 C.ar    1  UNL1        0.0023
     12 C           4.5856   43.2072    8.6936 C.ar    1  UNL1       -0.0015
     13 C           3.5880   43.2274    9.6730 C.ar    1  UNL1        0.0111
     14 C           3.5220   42.2049   10.6245 C.ar    1  UNL1        0.0577
     15 C           4.4494   41.1588   10.5933 C.ar    1  UNL1        0.0111
     16 C           5.4463   41.1377    9.6134 C.ar    1  UNL1       -0.0015
     17 CL          2.2679   42.2250   11.8444 Cl      1  UNL1       -0.0822
     18 S          12.0197   39.9894   10.1523 S.3     1  UNL1       -0.0834
     19 C          12.1620   39.6096    8.3743 C.3     1  UNL1        0.1487
     20 C          13.0054   40.6222    7.6796 C.2     1  UNL1        0.2386
     21 N          14.2871   40.9528    8.2242 N.am    1  UNL1       -0.2660
     22 O          12.5764   41.1843    6.6367 O.2     1  UNL1       -0.2738
     23 H          14.6305   40.3818    8.9490 H       1  UNL1        0.1564
     24 C          18.0391   44.0988    7.4432 C.3     1  UNL1        0.0754
     25 C          16.7261   43.4029    7.4520 C.ar    1  UNL1        0.1562
     26 C          16.4403   42.2408    8.1406 C.ar    1  UNL1        0.0734
     27 C          15.1109   42.0443    7.8025 C.ar    1  UNL1        0.1760
     28 N          14.6681   43.0109    6.9792 N.ar    1  UNL1       -0.0621
     29 O          15.6701   43.8150    6.7943 O.2     1  UNL1       -0.3565
@<TRIPOS>BOND
     1    24    25    1
     2    25    29   ar
     3    26    27   ar
     4    27    21    1
     5    19    20    1
     6    19    18    1
     7     1    18    1
     8     1     9   ar
     9     2     5   ar
    10    10     7    1
    11    10    11    1
    12    12    13   ar
    13    14    17    1
    14    14    15   ar
    15    16    11   ar
    16     3     2   ar
    17     4     8   ar
    18    21    20   am
    19     7     6   ar
    20     7     3   ar
    21    28    29   ar
    22    25    26   ar
    23    27    28   ar
    24    20    22    2
    25     1     2   ar
    26    11    12   ar
    27    13    14   ar
    28    15    16   ar
    29     3     8   ar
    30     4     9   ar
    31     5     6   ar
    32    21    23    1
@<TRIPOS>MOLECULE
MolPort-003-049-136 11758562 CSSS03437040344 MCULE-6217627162 PubChem-18554452 ZINC000011758562 ZINC11758562
 29 32 0 0 0
SMALL
GASTEIGER

@<TRIPOS>ATOM
      1 C          10.9835   39.8680    9.4352 C.ar    1  UNL1        0.1313
      2 C          10.1873   40.9931    9.2786 C.ar    1  UNL1        0.1632
      3 C           9.1685   40.9835    8.3976 C.ar    1  UNL1        0.1843
      4 C           9.6499   38.7979    7.7636 C.ar    1  UNL1        0.2008
      5 N          10.2177   42.1885    9.8986 N.ar    1  UNL1       -0.1251
      6 N           9.2071   42.8865    9.3745 N.ar    1  UNL1       -0.0621
      7 N           8.5618   42.1720    8.4564 N.ar    1  UNL1       -0.2102
      8 N           8.8665   39.9123    7.6266 N.ar    1  UNL1       -0.2034
      9 N          10.6942   38.7812    8.6573 N.ar    1  UNL1       -0.2159
     10 C           7.3906   42.6152    7.7168 C.3     1  UNL1        0.1572
     11 C           6.1696   42.4924    8.5616 C.ar    1  UNL1        0.0023
     12 C           6.0052   41.3859    9.4025 C.ar    1  UNL1       -0.0015
     13 C           4.8617   41.2770   10.1995 C.ar    1  UNL1        0.0111
     14 C           3.8832   42.2751   10.1579 C.ar    1  UNL1        0.0577
     15 C           4.0507   43.3853    9.3243 C.ar    1  UNL1        0.0111
     16 C           5.1947   43.4951    8.5283 C.ar    1  UNL1       -0.0015
     17 CL          2.4566   42.1437   11.1622 Cl      1  UNL1       -0.0822
     18 S          12.3353   39.8236   10.6120 S.3     1  UNL1       -0.0834
     19 C          13.5210   39.1079    9.4256 C.3     1  UNL1        0.1487
     20 C          14.3986   40.1639    8.8476 C.2     1  UNL1        0.2386
     21 N          13.8050   41.2301    8.0996 N.am    1  UNL1       -0.2660
     22 O          15.6465   40.0976    9.0090 O.2     1  UNL1       -0.2738
     23 H          12.8244   41.3119    8.1304 H       1  UNL1        0.1564
     24 C          17.2034   44.3268    6.2432 C.3     1  UNL1        0.0754
     25 C          15.9822   43.5190    6.4967 C.ar    1  UNL1        0.1562
     26 C          15.7946   42.6647    7.5650 C.ar    1  UNL1        0.0734
     27 C          14.5188   42.1872    7.3107 C.ar    1  UNL1        0.1760
     28 N          14.0145   42.7175    6.1826 N.ar    1  UNL1       -0.0621
     29 O          14.9249   43.5200    5.7222 O.2     1  UNL1       -0.3565
@<TRIPOS>BOND
     1    24    25    1
     2    25    29   ar
     3    26    27   ar
     4    27    21    1
     5    19    20    1
     6    19    18    1
     7     1    18    1
     8     1     9   ar
     9     2     5   ar
    10    10     7    1
    11    10    11    1
    12    12    13   ar
    13    14    17    1
    14    14    15   ar
    15    16    11   ar
    16     3     2   ar
    17     4     8   ar
    18    21    20   am
    19     7     6   ar
    20     7     3   ar
    21    28    29   ar
    22    25    26   ar
    23    27    28   ar
    24    20    22    2
    25     1     2   ar
    26    11    12   ar
    27    13    14   ar
    28    15    16   ar
    29     3     8   ar
    30     4     9   ar
    31     5     6   ar
    32    21    23    1
@<TRIPOS>MOLECULE
MolPort-003-049-136 11758562 CSSS03437040344 MCULE-6217627162 PubChem-18554452 ZINC000011758562 ZINC11758562
 29 32 0 0 0
SMALL
GASTEIGER

@<TRIPOS>ATOM
      1 C          10.1054   40.6327    9.9419 C.ar    1  UNL1        0.1313
      2 C          11.4188   40.3174   10.2577 C.ar    1  UNL1        0.1632
      3 C          12.2674   39.9110    9.2940 C.ar    1  UNL1        0.1843
      4 C          10.6100   40.0802    7.6708 C.ar    1  UNL1        0.2008
      5 N          12.0783   40.3594   11.4314 N.ar    1  UNL1       -0.1251
      6 N          13.3256   39.9728   11.1524 N.ar    1  UNL1       -0.0621
      7 N          13.4575   39.6906    9.8589 N.ar    1  UNL1       -0.2102
      8 N          11.9061   39.7816    7.9956 N.ar    1  UNL1       -0.2034
      9 N           9.7248   40.4993    8.6352 N.ar    1  UNL1       -0.2159
     10 C          14.6915   39.2755    9.2109 C.3     1  UNL1        0.1572
     11 C          15.5046   40.4667    8.8375 C.ar    1  UNL1        0.0023
     12 C          14.9734   41.4410    7.9850 C.ar    1  UNL1       -0.0015
     13 C          15.7362   42.5615    7.6421 C.ar    1  UNL1        0.0111
     14 C          17.0293   42.7095    8.1532 C.ar    1  UNL1        0.0577
     15 C          17.5577   41.7407    9.0120 C.ar    1  UNL1        0.0111
     16 C          16.7947   40.6209    9.3560 C.ar    1  UNL1       -0.0015
     17 CL         17.9805   44.1163    7.7319 Cl      1  UNL1       -0.0822
     18 S           8.9452   41.2013   11.1848 S.3     1  UNL1       -0.0834
     19 C           9.4429   42.9498   11.0413 C.3     1  UNL1        0.1487
     20 C           8.4960   43.7031   10.1721 C.2     1  UNL1        0.2386
     21 N           7.2734   43.0776    9.7684 N.am    1  UNL1       -0.2660
     22 O           8.7880   44.8681    9.7914 O.2     1  UNL1       -0.2738
     23 H           7.0311   42.2323   10.2111 H       1  UNL1        0.1564
     24 C           3.4223   45.0654    7.3598 C.3     1  UNL1        0.0754
     25 C           4.7212   44.4440    7.7271 C.ar    1  UNL1        0.1562
     26 C           5.1128   44.1041    9.0067 C.ar    1  UNL1        0.0734
     27 C           6.3741   43.5792    8.7746 C.ar    1  UNL1        0.1760
     28 N           6.6875   43.6202    7.4676 N.ar    1  UNL1       -0.0621
     29 O           5.6633   44.1443    6.8668 O.2     1  UNL1       -0.3565
@<TRIPOS>BOND
     1    24    25    1
     2    25    29   ar
     3    26    27   ar
     4    27    21    1
     5    19    20    1
     6    19    18    1
     7     1    18    1
     8     1     9   ar
     9     2     5   ar
    10    10     7    1
    11    10    11    1
    12    12    13   ar
    13    14    17    1
    14    14    15   ar
    15    16    11   ar
    16     3     2   ar
    17     4     8   ar
    18    21    20   am
    19     7     6   ar
    20     7     3   ar
    21    28    29   ar
    22    25    26   ar
    23    27    28   ar
    24    20    22    2
    25     1     2   ar
    26    11    12   ar
    27    13    14   ar
    28    15    16   ar
    29     3     8   ar
    30     4     9   ar
    31     5     6   ar
    32    21    23    1
@<TRIPOS>MOLECULE
MolPort-003-049-136 11758562 CSSS03437040344 MCULE-6217627162 PubChem-18554452 ZINC000011758562 ZINC11758562
 29 32 0 0 0
SMALL
GASTEIGER

@<TRIPOS>ATOM
      1 C          15.1550   37.3506   10.1230 C.ar    1  UNL1        0.1313
      2 C          14.3816   38.3113    9.4881 C.ar    1  UNL1        0.1632
      3 C          13.0412   38.2954    9.6189 C.ar    1  UNL1        0.1843
      4 C          13.1295   36.4073   10.9746 C.ar    1  UNL1        0.2008
      5 N          14.7331   39.3592    8.7182 N.ar    1  UNL1       -0.1251
      6 N          13.5868   39.9624    8.3939 N.ar    1  UNL1       -0.0621
      7 N          12.5474   39.3263    8.9279 N.ar    1  UNL1       -0.2102
      8 N          12.3796   37.3676   10.3500 N.ar    1  UNL1       -0.2034
      9 N          14.4992   36.4028   10.8589 N.ar    1  UNL1       -0.2159
     10 C          11.1574   39.7359    8.8045 C.3     1  UNL1        0.1572
     11 C          10.6640   39.4783    7.4225 C.ar    1  UNL1        0.0023
     12 C           9.5283   38.6866    7.2180 C.ar    1  UNL1       -0.0015
     13 C           9.0634   38.4525    5.9204 C.ar    1  UNL1        0.0111
     14 C           9.7322   39.0115    4.8270 C.ar    1  UNL1        0.0577
     15 C          10.8621   39.8097    5.0310 C.ar    1  UNL1        0.0111
     16 C          11.3264   40.0450    6.3285 C.ar    1  UNL1       -0.0015
     17 CL          9.1451   38.7264    3.2036 Cl      1  UNL1       -0.0822
     18 S          16.9436   37.3445    9.9992 S.3     1  UNL1       -0.0834
     19 C          17.1397   38.9576   10.8271 C.3     1  UNL1        0.1487
     20 C          17.5758   40.0029    9.8593 C.2     1  UNL1        0.2386
     21 N          16.7927   41.1929    9.7199 N.am    1  UNL1       -0.2660
     22 O          18.6130   39.8211    9.1674 O.2     1  UNL1       -0.2738
     23 H          16.0826   41.3465   10.3843 H       1  UNL1        0.1564
     24 C          16.1785   44.2033    5.8283 C.3     1  UNL1        0.0754
     25 C          16.6969   43.4875    7.0230 C.ar    1  UNL1        0.1562
     26 C          16.0489   42.4658    7.6880 C.ar    1  UNL1        0.0734
     27 C          16.9565   42.1779    8.6948 C.ar    1  UNL1        0.1760
     28 N          18.0372   42.9746    8.6208 N.ar    1  UNL1       -0.0621
     29 O          17.8461   43.7484    7.5963 O.2     1  UNL1       -0.3565
@<TRIPOS>BOND
     1    24    25    1
     2    25    29   ar
     3    26    27   ar
     4    27    21    1
     5    19    20    1
     6    19    18    1
     7     1    18    1
     8     1     9   ar
     9     2     5   ar
    10    10     7    1
    11    10    11    1
    12    12    13   ar
    13    14    17    1
    14    14    15   ar
    15    16    11   ar
    16     3     2   ar
    17     4     8   ar
    18    21    20   am
    19     7     6   ar
    20     7     3   ar
    21    28    29   ar
    22    25    26   ar
    23    27    28   ar
    24    20    22    2
    25     1     2   ar
    26    11    12   ar
    27    13    14   ar
    28    15    16   ar
    29     3     8   ar
    30     4     9   ar
    31     5     6   ar
    32    21    23    1
@<TRIPOS>MOLECULE
MolPort-003-049-136 11758562 CSSS03437040344 MCULE-6217627162 PubChem-18554452 ZINC000011758562 ZINC11758562
 29 32 0 0 0
SMALL
GASTEIGER

@<TRIPOS>ATOM
      1 C           8.8849   42.0288    7.6856 C.ar    1  UNL1        0.1313
      2 C          10.0478   41.3049    7.4670 C.ar    1  UNL1        0.1632
      3 C          11.0368   41.3214    8.3812 C.ar    1  UNL1        0.1843
      4 C           9.8290   42.7541    9.7593 C.ar    1  UNL1        0.2008
      5 N          10.4093   40.5035    6.4465 N.ar    1  UNL1       -0.1251
      6 N          11.6228   40.0468    6.7659 N.ar    1  UNL1       -0.0621
      7 N          12.0227   40.5380    7.9359 N.ar    1  UNL1       -0.2102
      8 N          10.9672   42.0271    9.5345 N.ar    1  UNL1       -0.2034
      9 N           8.8042   42.7522    8.8433 N.ar    1  UNL1       -0.2159
     10 C          13.2779   40.2180    8.5969 C.3     1  UNL1        0.1572
     11 C          14.3386   41.1793    8.1839 C.ar    1  UNL1        0.0023
     12 C          14.0723   42.1405    7.2023 C.ar    1  UNL1       -0.0015
     13 C          15.0674   43.0459    6.8219 C.ar    1  UNL1        0.0111
     14 C          16.3283   42.9923    7.4241 C.ar    1  UNL1        0.0577
     15 C          16.5926   42.0376    8.4111 C.ar    1  UNL1        0.0111
     16 C          15.5973   41.1330    8.7926 C.ar    1  UNL1       -0.0015
     17 CL         17.5708   44.1313    6.9549 Cl      1  UNL1       -0.0822
     18 S           7.5309   42.0190    6.5105 S.3     1  UNL1       -0.0834
     19 C           7.0109   43.7248    6.8924 C.3     1  UNL1        0.1487
     20 C           6.0470   43.7456    8.0281 C.2     1  UNL1        0.2386
     21 N           5.4718   42.5138    8.4759 N.am    1  UNL1       -0.2660
     22 O           5.7389   44.8420    8.5671 O.2     1  UNL1       -0.2738
     23 H           5.8565   41.6802    8.1203 H       1  UNL1        0.1564
     24 C           2.6313   41.6393   12.4447 C.3     1  UNL1        0.0754
     25 C           3.1516   42.0283   11.1082 C.ar    1  UNL1        0.1562
     26 C           4.4570   41.8815   10.6833 C.ar    1  UNL1        0.0734
     27 C           4.3838   42.3934    9.3977 C.ar    1  UNL1        0.1760
     28 N           3.1383   42.8088    9.1074 N.ar    1  UNL1       -0.0621
     29 O           2.4219   42.5678   10.1627 O.2     1  UNL1       -0.3565
@<TRIPOS>BOND
     1    24    25    1
     2    25    29   ar
     3    26    27   ar
     4    27    21    1
     5    19    20    1
     6    19    18    1
     7     1    18    1
     8     1     9   ar
     9     2     5   ar
    10    10     7    1
    11    10    11    1
    12    12    13   ar
    13    14    17    1
    14    14    15   ar
    15    16    11   ar
    16     3     2   ar
    17     4     8   ar
    18    21    20   am
    19     7     6   ar
    20     7     3   ar
    21    28    29   ar
    22    25    26   ar
    23    27    28   ar
    24    20    22    2
    25     1     2   ar
    26    11    12   ar
    27    13    14   ar
    28    15    16   ar
    29     3     8   ar
    30     4     9   ar
    31     5     6   ar
    32    21    23    1
@<TRIPOS>MOLECULE
MolPort-003-049-136 11758562 CSSS03437040344 MCULE-6217627162 PubChem-18554452 ZINC000011758562 ZINC11758562
 29 32 0 0 0
SMALL
GASTEIGER

@<TRIPOS>ATOM
      1 C           8.4366   41.2364    6.1014 C.ar    1  UNL1        0.1313
      2 C           9.4792   41.3618    7.0078 C.ar    1  UNL1        0.1632
      3 C          10.5654   40.5723    6.9026 C.ar    1  UNL1        0.1843
      4 C           9.6801   39.4888    5.0445 C.ar    1  UNL1        0.2008
      5 N           9.6474   42.2002    8.0484 N.ar    1  UNL1       -0.1251
      6 N          10.8439   41.8980    8.5586 N.ar    1  UNL1       -0.0621
      7 N          11.4140   40.9069    7.8784 N.ar    1  UNL1       -0.2102
      8 N          10.7057   39.6302    5.9404 N.ar    1  UNL1       -0.2034
      9 N           8.5618   40.2836    5.1286 N.ar    1  UNL1       -0.2159
     10 C          12.7334   40.3556    8.1436 C.3     1  UNL1        0.1572
     11 C          13.7892   41.3228    7.7321 C.ar    1  UNL1        0.0023
     12 C          15.0131   41.3576    8.4099 C.ar    1  UNL1       -0.0015
     13 C          16.0047   42.2614    8.0169 C.ar    1  UNL1        0.0111
     14 C          15.7743   43.1291    6.9449 C.ar    1  UNL1        0.0577
     15 C          14.5549   43.0891    6.2616 C.ar    1  UNL1        0.0111
     16 C          13.5637   42.1846    6.6536 C.ar    1  UNL1       -0.0015
     17 CL         17.0187   44.2537    6.4469 Cl      1  UNL1       -0.0822
     18 S           6.9814   42.2804    6.1851 S.3     1  UNL1       -0.0834
     19 C           7.4562   43.0435    7.7719 C.3     1  UNL1        0.1487
     20 C           6.2620   43.2640    8.6348 C.2     1  UNL1        0.2386
     21 N           5.6230   42.1357    9.2409 N.am    1  UNL1       -0.2660
     22 O           5.8215   44.4319    8.8066 O.2     1  UNL1       -0.2738
     23 H           6.0924   41.2716    9.1933 H       1  UNL1        0.1564
     24 C           1.9850   42.0814   12.6094 C.3     1  UNL1        0.0754
     25 C           2.7822   42.1467   11.3569 C.ar    1  UNL1        0.1562
     26 C           4.1548   42.0221   11.2739 C.ar    1  UNL1        0.0734
     27 C           4.3583   42.1595    9.9102 C.ar    1  UNL1        0.1760
     28 N           3.1976   42.3551    9.2602 N.ar    1  UNL1       -0.0621
     29 O           2.2685   42.3364   10.1663 O.2     1  UNL1       -0.3565
@<TRIPOS>BOND
     1    24    25    1
     2    25    29   ar
     3    26    27   ar
     4    27    21    1
     5    19    20    1
     6    19    18    1
     7     1    18    1
     8     1     9   ar
     9     2     5   ar
    10    10     7    1
    11    10    11    1
    12    12    13   ar
    13    14    17    1
    14    14    15   ar
    15    16    11   ar
    16     3     2   ar
    17     4     8   ar
    18    21    20   am
    19     7     6   ar
    20     7     3   ar
    21    28    29   ar
    22    25    26   ar
    23    27    28   ar
    24    20    22    2
    25     1     2   ar
    26    11    12   ar
    27    13    14   ar
    28    15    16   ar
    29     3     8   ar
    30     4     9   ar
    31     5     6   ar
    32    21    23    1
@<TRIPOS>MOLECULE
MolPort-003-049-136 11758562 CSSS03437040344 MCULE-6217627162 PubChem-18554452 ZINC000011758562 ZINC11758562
 29 32 0 0 0
SMALL
GASTEIGER

@<TRIPOS>ATOM
      1 C           9.0271   41.6509    6.3905 C.ar    1  UNL1        0.1313
      2 C          10.0919   41.6175    7.2789 C.ar    1  UNL1        0.1632
      3 C          11.1325   40.7918    7.0568 C.ar    1  UNL1        0.1843
      4 C          10.1560   39.9771    5.1092 C.ar    1  UNL1        0.2008
      5 N          10.3240   42.3201    8.4045 N.ar    1  UNL1       -0.1251
      6 N          11.5122   41.9008    8.8466 N.ar    1  UNL1       -0.0621
      7 N          12.0160   40.9677    8.0430 N.ar    1  UNL1       -0.2102
      8 N          11.2044   39.9618    5.9896 N.ar    1  UNL1       -0.2034
      9 N           9.0832   40.8122    5.3119 N.ar    1  UNL1       -0.2159
     10 C          13.3091   40.3235    8.2102 C.3     1  UNL1        0.1572
     11 C          14.4076   41.2956    7.9495 C.ar    1  UNL1        0.0023
     12 C          15.5922   41.2331    8.6920 C.ar    1  UNL1       -0.0015
     13 C          16.6242   42.1421    8.4403 C.ar    1  UNL1        0.0111
     14 C          16.4734   43.1124    7.4447 C.ar    1  UNL1        0.0577
     15 C          15.2935   43.1701    6.6965 C.ar    1  UNL1        0.0111
     16 C          14.2620   42.2604    6.9472 C.ar    1  UNL1       -0.0015
     17 CL         17.7685   44.2440    7.1231 Cl      1  UNL1       -0.0822
     18 S           7.6311   42.7502    6.6298 S.3     1  UNL1       -0.0834
     19 C           6.7082   41.5690    7.6683 C.3     1  UNL1        0.1487
     20 C           6.8737   41.8891    9.1139 C.2     1  UNL1        0.2386
     21 N           8.0328   41.4114    9.8046 N.am    1  UNL1       -0.2660
     22 O           5.9890   42.5581    9.7117 O.2     1  UNL1       -0.2738
     23 H           8.7556   41.0245    9.2595 H       1  UNL1        0.1564
     24 C           9.8611   41.0467   14.3990 C.3     1  UNL1        0.0754
     25 C           9.0118   41.3050   13.2072 C.ar    1  UNL1        0.1562
     26 C           9.3522   41.0098   11.9021 C.ar    1  UNL1        0.0734
     27 C           8.2281   41.4497   11.2217 C.ar    1  UNL1        0.1760
     28 N           7.3162   41.9640   12.0656 N.ar    1  UNL1       -0.0621
     29 O           7.8232   41.8549   13.2555 O.2     1  UNL1       -0.3565
@<TRIPOS>BOND
     1    24    25    1
     2    25    29   ar
     3    26    27   ar
     4    27    21    1
     5    19    20    1
     6    19    18    1
     7     1    18    1
     8     1     9   ar
     9     2     5   ar
    10    10     7    1
    11    10    11    1
    12    12    13   ar
    13    14    17    1
    14    14    15   ar
    15    16    11   ar
    16     3     2   ar
    17     4     8   ar
    18    21    20   am
    19     7     6   ar
    20     7     3   ar
    21    28    29   ar
    22    25    26   ar
    23    27    28   ar
    24    20    22    2
    25     1     2   ar
    26    11    12   ar
    27    13    14   ar
    28    15    16   ar
    29     3     8   ar
    30     4     9   ar
    31     5     6   ar
    32    21    23    1
@<TRIPOS>MOLECULE
MolPort-003-049-136 11758562 CSSS03437040344 MCULE-6217627162 PubChem-18554452 ZINC000011758562 ZINC11758562
 29 32 0 0 0
SMALL
GASTEIGER

@<TRIPOS>ATOM
      1 C           8.3059   43.0764    7.9921 C.ar    1  UNL1        0.1313
      2 C           9.4381   42.2894    7.8409 C.ar    1  UNL1        0.1632
      3 C          10.3919   42.2866    8.7919 C.ar    1  UNL1        0.1843
      4 C           9.2075   43.8208   10.0779 C.ar    1  UNL1        0.2008
      5 N           9.7964   41.4387    6.8600 N.ar    1  UNL1       -0.1251
      6 N          10.9726   40.9332    7.2400 N.ar    1  UNL1       -0.0621
      7 N          11.3529   41.4416    8.4092 N.ar    1  UNL1       -0.2102
      8 N          10.3151   43.0317    9.9197 N.ar    1  UNL1       -0.2034
      9 N           8.2187   43.8399    9.1233 N.ar    1  UNL1       -0.2159
     10 C          12.5649   41.0816    9.1279 C.3     1  UNL1        0.1572
     11 C          12.5116   39.6528    9.5467 C.ar    1  UNL1        0.0023
     12 C          11.3650   38.8900    9.2985 C.ar    1  UNL1       -0.0015
     13 C          11.3206   37.5475    9.6862 C.ar    1  UNL1        0.0111
     14 C          12.4232   36.9664   10.3201 C.ar    1  UNL1        0.0577
     15 C          13.5726   37.7255   10.5608 C.ar    1  UNL1        0.0111
     16 C          13.6177   39.0676   10.1720 C.ar    1  UNL1       -0.0015
     17 CL         12.3715   35.2838   10.7969 Cl      1  UNL1       -0.0822
     18 S           6.9978   43.0955    6.7661 S.3     1  UNL1       -0.0834
     19 C           6.5150   41.3616    7.0599 C.3     1  UNL1        0.1487
     20 C           5.9859   41.1833    8.4411 C.2     1  UNL1        0.2386
     21 N           4.5706   41.2098    8.6535 N.am    1  UNL1       -0.2660
     22 O           6.7858   41.0286    9.4022 O.2     1  UNL1       -0.2738
     23 H           3.9939   41.1856    7.8559 H       1  UNL1        0.1564
     24 C           1.7213   42.4153   12.5280 C.3     1  UNL1        0.0754
     25 C           2.6923   41.7751   11.6031 C.ar    1  UNL1        0.1562
     26 C           2.9809   42.2039   10.3228 C.ar    1  UNL1        0.0734
     27 C           3.9245   41.2686    9.9290 C.ar    1  UNL1        0.1760
     28 N           4.1557   40.3687   10.9010 N.ar    1  UNL1       -0.0621
     29 O           3.3971   40.7101   11.8973 O.2     1  UNL1       -0.3565
@<TRIPOS>BOND
     1    24    25    1
     2    25    29   ar
     3    26    27   ar
     4    27    21    1
     5    19    20    1
     6    19    18    1
     7     1    18    1
     8     1     9   ar
     9     2     5   ar
    10    10     7    1
    11    10    11    1
    12    12    13   ar
    13    14    17    1
    14    14    15   ar
    15    16    11   ar
    16     3     2   ar
    17     4     8   ar
    18    21    20   am
    19     7     6   ar
    20     7     3   ar
    21    28    29   ar
    22    25    26   ar
    23    27    28   ar
    24    20    22    2
    25     1     2   ar
    26    11    12   ar
    27    13    14   ar
    28    15    16   ar
    29     3     8   ar
    30     4     9   ar
    31     5     6   ar
    32    21    23    1
