@<TRIPOS>MOLECULE
MolPort-002-715-877 2192313 CSSS00160400662 ChemDiv-8013-0437 MCULE-8505220362 PubChem-1826749 ZINC000002192313
 29 30 0 0 0
SMALL
GASTEIGER

@<TRIPOS>ATOM
      1 C          12.2223   41.9937    8.5792 C.ar    1  UNL1        0.0903
      2 C          10.2543   41.4132   10.0228 C.ar    1  UNL1        0.0809
      3 C          11.0350   40.3051    9.6711 C.ar    1  UNL1       -0.0001
      4 C          10.7117   38.9035   10.0780 C.3     1  UNL1        0.0325
      5 C          12.1289   40.6271    8.8458 C.ar    1  UNL1        0.0847
      6 S          10.9391   42.7829    9.3148 S.2     1  UNL1       -0.0673
      7 C           9.0646   41.4117   10.9060 C.2     1  UNL1        0.2548
      8 C           7.4053   41.9297    9.0688 C.3     1  UNL1        0.0937
      9 C           6.2632   40.9363    8.8742 C.3     1  UNL1        0.0216
     10 C           5.1180   41.2654    9.8305 C.3     1  UNL1        0.0035
     11 C           5.6075   41.2438   11.2778 C.3     1  UNL1        0.0216
     12 C           6.7563   42.2333   11.4550 C.3     1  UNL1        0.0937
     13 N           7.8008   41.9460   10.4749 N.am    1  UNL1       -0.2757
     14 O           9.1707   40.9478   12.0739 O.2     1  UNL1       -0.2694
     15 C          14.5697   42.3772    7.6832 C.2     1  UNL1        0.2430
     16 N          13.1642   42.6483    7.7219 N.am    1  UNL1       -0.2780
     17 O          15.1313   41.7694    8.6328 O.2     1  UNL1       -0.2742
     18 H          12.8184   43.3388    7.1113 H       1  UNL1        0.1553
     19 C          15.4032   42.8669    6.5353 C.3     1  UNL1        0.2653
     20 C          14.6022   43.7849    5.5969 C.3     1  UNL1        0.4138
     21 F          15.1788   43.7820    4.3390 F       1  UNL1       -0.1692
     22 F          13.2909   43.3555    5.4900 F       1  UNL1       -0.1692
     23 F          14.6150   45.0816    6.0768 F       1  UNL1       -0.1692
     24 C          16.7398   43.4635    7.0078 C.3     1  UNL1        0.4138
     25 F          17.3647   44.1465    5.9788 F       1  UNL1       -0.1692
     26 F          17.5764   42.4575    7.4549 F       1  UNL1       -0.1692
     27 F          16.5150   44.3386    8.0555 F       1  UNL1       -0.1692
     28 C          12.9860   39.6287    8.2547 C.1     1  UNL1        0.1019
     29 N          13.6726   38.8261    7.7818 N.1     1  UNL1       -0.1908
@<TRIPOS>BOND
     1     1    16    1
     2     1     6   ar
     3    19    15    1
     4    19    20    1
     5    19    24    1
     6    20    21    1
     7    20    22    1
     8    20    23    1
     9    24    25    1
    10    24    26    1
    11    24    27    1
    12     2     6   ar
    13     2     7    1
    14     3     5   ar
    15     4     3    1
    16     5    28    1
    17     7    13   am
    18     8    13    1
    19     8     9    1
    20     9    10    1
    21    10    11    1
    22    11    12    1
    23    12    13    1
    24    16    15   am
    25    15    17    2
    26     2     3   ar
    27     5     1   ar
    28     7    14    2
    29    28    29    3
    30    16    18    1
@<TRIPOS>MOLECULE
MolPort-002-715-877 2192313 CSSS00160400662 ChemDiv-8013-0437 MCULE-8505220362 PubChem-1826749 ZINC000002192313
 29 30 0 0 0
SMALL
GASTEIGER

@<TRIPOS>ATOM
      1 C          13.1920   41.5879    7.6305 C.ar    1  UNL1        0.0903
      2 C          11.1176   40.2850    7.0893 C.ar    1  UNL1        0.0809
      3 C          11.7131   39.9092    8.2997 C.ar    1  UNL1       -0.0001
      4 C          11.1931   38.8116    9.1712 C.3     1  UNL1        0.0325
      5 C          12.8875   40.6267    8.5953 C.ar    1  UNL1        0.0847
      6 S          12.0498   41.5137    6.4056 S.2     1  UNL1       -0.0673
      7 C           9.8595   39.7487    6.5193 C.2     1  UNL1        0.2548
      8 C           8.3479   40.7934    8.2573 C.3     1  UNL1        0.0937
      9 C           7.2437   41.7133    7.7439 C.3     1  UNL1        0.0216
     10 C           6.0179   40.8887    7.3541 C.3     1  UNL1        0.0035
     11 C           6.3871   39.8505    6.2956 C.3     1  UNL1        0.0216
     12 C           7.4995   38.9451    6.8182 C.3     1  UNL1        0.0937
     13 N           8.6260   39.7641    7.2588 N.am    1  UNL1       -0.2757
     14 O           9.8774   39.2468    5.3625 O.2     1  UNL1       -0.2694
     15 C          15.7021   41.9852    7.6782 C.2     1  UNL1        0.2430
     16 N          14.3459   42.4348    7.5831 N.am    1  UNL1       -0.2780
     17 O          15.9675   40.8427    8.1372 O.2     1  UNL1       -0.2742
     18 H          14.1948   43.4018    7.4767 H       1  UNL1        0.1553
     19 C          16.8297   42.8946    7.2862 C.3     1  UNL1        0.2653
     20 C          16.3918   43.9297    6.2365 C.3     1  UNL1        0.4138
     21 F          17.4930   44.3551    5.5146 F       1  UNL1       -0.1692
     22 F          15.4669   43.3841    5.3635 F       1  UNL1       -0.1692
     23 F          15.8307   45.0291    6.8596 F       1  UNL1       -0.1692
     24 C          17.5325   43.5015    8.5122 C.3     1  UNL1        0.4138
     25 F          18.7378   44.0792    8.1524 F       1  UNL1       -0.1692
     26 F          17.7669   42.5208    9.4582 F       1  UNL1       -0.1692
     27 F          16.7237   44.4691    9.0813 F       1  UNL1       -0.1692
     28 C          13.7355   40.3143    9.7196 C.1     1  UNL1        0.1019
     29 N          14.4144   40.0619   10.6222 N.1     1  UNL1       -0.1908
@<TRIPOS>BOND
     1     1    16    1
     2     1     6   ar
     3    19    15    1
     4    19    20    1
     5    19    24    1
     6    20    21    1
     7    20    22    1
     8    20    23    1
     9    24    25    1
    10    24    26    1
    11    24    27    1
    12     2     6   ar
    13     2     7    1
    14     3     5   ar
    15     4     3    1
    16     5    28    1
    17     7    13   am
    18     8    13    1
    19     8     9    1
    20     9    10    1
    21    10    11    1
    22    11    12    1
    23    12    13    1
    24    16    15   am
    25    15    17    2
    26     2     3   ar
    27     5     1   ar
    28     7    14    2
    29    28    29    3
    30    16    18    1
@<TRIPOS>MOLECULE
MolPort-002-715-877 2192313 CSSS00160400662 ChemDiv-8013-0437 MCULE-8505220362 PubChem-1826749 ZINC000002192313
 29 30 0 0 0
SMALL
GASTEIGER

@<TRIPOS>ATOM
      1 C          13.1804   41.4368    8.2670 C.ar    1  UNL1        0.0903
      2 C          10.6799   41.5154    8.4549 C.ar    1  UNL1        0.0809
      3 C          11.3027   40.8967    9.5459 C.ar    1  UNL1       -0.0001
      4 C          10.5557   40.3017   10.6960 C.3     1  UNL1        0.0325
      5 C          12.7044   40.8354    9.4328 C.ar    1  UNL1        0.0847
      6 S          11.8788   41.9909    7.3673 S.2     1  UNL1       -0.0673
      7 C           9.2290   41.7674    8.2916 C.2     1  UNL1        0.2548
      8 C           8.9217   40.1476    6.3737 C.3     1  UNL1        0.0937
      9 C           7.8886   39.0412    6.5675 C.3     1  UNL1        0.0216
     10 C           6.4991   39.5545    6.1930 C.3     1  UNL1        0.0035
     11 C           6.1379   40.7792    7.0322 C.3     1  UNL1        0.0216
     12 C           7.1850   41.8728    6.8372 C.3     1  UNL1        0.0937
     13 N           8.5114   41.3322    7.1236 N.am    1  UNL1       -0.2757
     14 O           8.6129   42.3991    9.1927 O.2     1  UNL1       -0.2694
     15 C          15.2063   42.6642    7.3451 C.2     1  UNL1        0.2430
     16 N          14.5357   41.4863    7.8070 N.am    1  UNL1       -0.2780
     17 O          14.5493   43.6832    7.0040 O.2     1  UNL1       -0.2742
     18 H          15.0463   40.6446    7.8084 H       1  UNL1        0.1553
     19 C          16.7004   42.6784    7.2058 C.3     1  UNL1        0.2653
     20 C          17.1994   43.9631    6.5234 C.3     1  UNL1        0.4138
     21 F          18.5096   44.2087    6.8946 F       1  UNL1       -0.1692
     22 F          17.1385   43.8440    5.1459 F       1  UNL1       -0.1692
     23 F          16.4278   45.0405    6.9179 F       1  UNL1       -0.1692
     24 C          17.4056   42.3582    8.5346 C.3     1  UNL1        0.4138
     25 F          16.6986   41.4074    9.2500 F       1  UNL1       -0.1692
     26 F          17.5203   43.5047    9.2989 F       1  UNL1       -0.1692
     27 F          18.6775   41.8756    8.2825 F       1  UNL1       -0.1692
     28 C          13.5368   40.1251   10.3727 C.1     1  UNL1        0.1019
     29 N          14.2055   39.5572   11.1275 N.1     1  UNL1       -0.1908
@<TRIPOS>BOND
     1     1    16    1
     2     1     6   ar
     3    19    15    1
     4    19    20    1
     5    19    24    1
     6    20    21    1
     7    20    22    1
     8    20    23    1
     9    24    25    1
    10    24    26    1
    11    24    27    1
    12     2     6   ar
    13     2     7    1
    14     3     5   ar
    15     4     3    1
    16     5    28    1
    17     7    13   am
    18     8    13    1
    19     8     9    1
    20     9    10    1
    21    10    11    1
    22    11    12    1
    23    12    13    1
    24    16    15   am
    25    15    17    2
    26     2     3   ar
    27     5     1   ar
    28     7    14    2
    29    28    29    3
    30    16    18    1
@<TRIPOS>MOLECULE
MolPort-002-715-877 2192313 CSSS00160400662 ChemDiv-8013-0437 MCULE-8505220362 PubChem-1826749 ZINC000002192313
 29 30 0 0 0
SMALL
GASTEIGER

@<TRIPOS>ATOM
      1 C          12.9056   41.5557    7.5611 C.ar    1  UNL1        0.0903
      2 C          10.3984   41.5597    7.4752 C.ar    1  UNL1        0.0809
      3 C          10.9150   41.0683    8.6804 C.ar    1  UNL1       -0.0001
      4 C          10.0634   40.5557    9.7970 C.3     1  UNL1        0.0325
      5 C          12.3218   41.0482    8.7226 C.ar    1  UNL1        0.0847
      6 S          11.6954   41.9758    6.4797 S.2     1  UNL1       -0.0673
      7 C           8.9676   41.7422    7.1360 C.2     1  UNL1        0.2548
      8 C           8.4622   43.2938    9.0682 C.3     1  UNL1        0.0937
      9 C           7.8894   44.6642    8.7174 C.3     1  UNL1        0.0216
     10 C           6.3727   44.5698    8.5589 C.3     1  UNL1        0.0035
     11 C           6.0106   43.5456    7.4844 C.3     1  UNL1        0.0216
     12 C           6.5989   42.1833    7.8426 C.3     1  UNL1        0.0937
     13 N           8.0359   42.3185    8.0678 N.am    1  UNL1       -0.2757
     14 O           8.5536   41.3620    6.0070 O.2     1  UNL1       -0.2694
     15 C          15.0676   42.8140    7.1106 C.2     1  UNL1        0.2430
     16 N          14.3011   41.6119    7.2443 N.am    1  UNL1       -0.2780
     17 O          14.4953   43.9234    6.9425 O.2     1  UNL1       -0.2742
     18 H          14.7701   40.7572    7.1078 H       1  UNL1        0.1553
     19 C          16.5673   42.7587    7.1101 C.3     1  UNL1        0.2653
     20 C          17.1859   44.0064    6.4577 C.3     1  UNL1        0.4138
     21 F          18.4433   44.2344    6.9886 F       1  UNL1       -0.1692
     22 F          17.3007   43.8400    5.0886 F       1  UNL1       -0.1692
     23 F          16.3998   45.1147    6.7134 F       1  UNL1       -0.1692
     24 C          17.1318   42.4327    8.5032 C.3     1  UNL1        0.4138
     25 F          16.2770   41.5933    9.1963 F       1  UNL1       -0.1692
     26 F          17.3068   43.5970    9.2282 F       1  UNL1       -0.1692
     27 F          18.3620   41.8129    8.3741 F       1  UNL1       -0.1692
     28 C          13.0656   40.4593    9.8092 C.1     1  UNL1        0.1019
     29 N          13.6605   39.9854   10.6815 N.1     1  UNL1       -0.1908
@<TRIPOS>BOND
     1     1    16    1
     2     1     6   ar
     3    19    15    1
     4    19    20    1
     5    19    24    1
     6    20    21    1
     7    20    22    1
     8    20    23    1
     9    24    25    1
    10    24    26    1
    11    24    27    1
    12     2     6   ar
    13     2     7    1
    14     3     5   ar
    15     4     3    1
    16     5    28    1
    17     7    13   am
    18     8    13    1
    19     8     9    1
    20     9    10    1
    21    10    11    1
    22    11    12    1
    23    12    13    1
    24    16    15   am
    25    15    17    2
    26     2     3   ar
    27     5     1   ar
    28     7    14    2
    29    28    29    3
    30    16    18    1
@<TRIPOS>MOLECULE
MolPort-002-715-877 2192313 CSSS00160400662 ChemDiv-8013-0437 MCULE-8505220362 PubChem-1826749 ZINC000002192313
 29 30 0 0 0
SMALL
GASTEIGER

@<TRIPOS>ATOM
      1 C          13.2059   41.3155    8.5724 C.ar    1  UNL1        0.0903
      2 C          10.7280   40.9774    8.7712 C.ar    1  UNL1        0.0809
      3 C          11.4669   39.7986    8.9303 C.ar    1  UNL1       -0.0001
      4 C          10.8458   38.4578    9.1564 C.3     1  UNL1        0.0325
      5 C          12.8562   39.9839    8.8004 C.ar    1  UNL1        0.0847
      6 S          11.8099   42.2395    8.4835 S.2     1  UNL1       -0.0673
      7 C           9.2579   41.1214    8.8869 C.2     1  UNL1        0.2548
      8 C           8.7736   40.5560    6.4698 C.3     1  UNL1        0.0937
      9 C           7.8302   39.3840    6.2139 C.3     1  UNL1        0.0216
     10 C           6.3799   39.8624    6.2627 C.3     1  UNL1        0.0035
     11 C           6.0765   40.5110    7.6125 C.3     1  UNL1        0.0216
     12 C           7.0342   41.6737    7.8599 C.3     1  UNL1        0.0937
     13 N           8.4115   41.2056    7.7271 N.am    1  UNL1       -0.2757
     14 O           8.7388   41.1929   10.0341 O.2     1  UNL1       -0.2694
     15 C          14.8188   42.8956    7.4053 C.2     1  UNL1        0.2430
     16 N          14.5154   41.8383    8.3220 N.am    1  UNL1       -0.2780
     17 O          13.9951   43.2240    6.5108 O.2     1  UNL1       -0.2742
     18 H          15.2658   41.4395    8.8191 H       1  UNL1        0.1553
     19 C          16.1493   43.5875    7.4621 C.3     1  UNL1        0.2653
     20 C          17.2669   42.6412    7.9319 C.3     1  UNL1        0.4138
     21 F          16.7122   41.5490    8.5753 F       1  UNL1       -0.1692
     22 F          18.0178   42.1955    6.8582 F       1  UNL1       -0.1692
     23 F          18.0976   43.2941    8.8238 F       1  UNL1       -0.1692
     24 C          16.4661   44.3342    6.1553 C.3     1  UNL1        0.4138
     25 F          15.7522   45.5175    6.0795 F       1  UNL1       -0.1692
     26 F          16.1453   43.5432    5.0675 F       1  UNL1       -0.1692
     27 F          17.8182   44.6218    6.0991 F       1  UNL1       -0.1692
     28 C          13.7961   38.8897    8.7934 C.1     1  UNL1        0.1019
     29 N          14.5490   38.0108    8.7860 N.1     1  UNL1       -0.1908
@<TRIPOS>BOND
     1     1    16    1
     2     1     6   ar
     3    19    15    1
     4    19    20    1
     5    19    24    1
     6    20    21    1
     7    20    22    1
     8    20    23    1
     9    24    25    1
    10    24    26    1
    11    24    27    1
    12     2     6   ar
    13     2     7    1
    14     3     5   ar
    15     4     3    1
    16     5    28    1
    17     7    13   am
    18     8    13    1
    19     8     9    1
    20     9    10    1
    21    10    11    1
    22    11    12    1
    23    12    13    1
    24    16    15   am
    25    15    17    2
    26     2     3   ar
    27     5     1   ar
    28     7    14    2
    29    28    29    3
    30    16    18    1
@<TRIPOS>MOLECULE
MolPort-002-715-877 2192313 CSSS00160400662 ChemDiv-8013-0437 MCULE-8505220362 PubChem-1826749 ZINC000002192313
 29 30 0 0 0
SMALL
GASTEIGER

@<TRIPOS>ATOM
      1 C          12.9727   41.1506    8.3155 C.ar    1  UNL1        0.0903
      2 C          10.5355   40.6414    8.0077 C.ar    1  UNL1        0.0809
      3 C          11.2847   39.5422    8.4454 C.ar    1  UNL1       -0.0001
      4 C          10.7043   38.1831    8.6707 C.3     1  UNL1        0.0325
      5 C          12.6555   39.8218    8.6005 C.ar    1  UNL1        0.0847
      6 S          11.5826   41.9523    7.8305 S.2     1  UNL1       -0.0673
      7 C           9.0709   40.6812    7.7870 C.2     1  UNL1        0.2548
      8 C           8.6407   42.5847    9.3959 C.3     1  UNL1        0.0937
      9 C           7.9484   43.8208    8.8285 C.3     1  UNL1        0.0216
     10 C           6.4333   43.6252    8.8499 C.3     1  UNL1        0.0035
     11 C           6.0441   42.3796    8.0550 C.3     1  UNL1        0.0216
     12 C           6.7521   41.1537    8.6262 C.3     1  UNL1        0.0937
     13 N           8.1913   41.3998    8.6693 N.am    1  UNL1       -0.2757
     14 O           8.5823   40.0503    6.8104 O.2     1  UNL1       -0.2694
     15 C          14.7812   42.5925    7.2616 C.2     1  UNL1        0.2430
     16 N          14.2740   41.7483    8.3011 N.am    1  UNL1       -0.2780
     17 O          14.2366   42.6080    6.1260 O.2     1  UNL1       -0.2742
     18 H          14.8662   41.5644    9.0657 H       1  UNL1        0.1553
     19 C          16.0064   43.4270    7.4952 C.3     1  UNL1        0.2653
     20 C          17.1887   42.5805    7.9957 C.3     1  UNL1        0.4138
     21 F          17.8573   43.2611    8.9979 F       1  UNL1       -0.1692
     22 F          16.7486   41.3669    8.4944 F       1  UNL1       -0.1692
     23 F          18.0772   42.3483    6.9620 F       1  UNL1       -0.1692
     24 C          16.3376   44.3150    6.2838 C.3     1  UNL1        0.4138
     25 F          16.3000   43.5811    5.1110 F       1  UNL1       -0.1692
     26 F          17.5969   44.8669    6.4306 F       1  UNL1       -0.1692
     27 F          15.4193   45.3463    6.1971 F       1  UNL1       -0.1692
     28 C          13.6326   38.8072    8.9114 C.1     1  UNL1        0.1019
     29 N          14.4151   37.9923    9.1624 N.1     1  UNL1       -0.1908
@<TRIPOS>BOND
     1     1    16    1
     2     1     6   ar
     3    19    15    1
     4    19    20    1
     5    19    24    1
     6    20    21    1
     7    20    22    1
     8    20    23    1
     9    24    25    1
    10    24    26    1
    11    24    27    1
    12     2     6   ar
    13     2     7    1
    14     3     5   ar
    15     4     3    1
    16     5    28    1
    17     7    13   am
    18     8    13    1
    19     8     9    1
    20     9    10    1
    21    10    11    1
    22    11    12    1
    23    12    13    1
    24    16    15   am
    25    15    17    2
    26     2     3   ar
    27     5     1   ar
    28     7    14    2
    29    28    29    3
    30    16    18    1
@<TRIPOS>MOLECULE
MolPort-002-715-877 2192313 CSSS00160400662 ChemDiv-8013-0437 MCULE-8505220362 PubChem-1826749 ZINC000002192313
 29 30 0 0 0
SMALL
GASTEIGER

@<TRIPOS>ATOM
      1 C          13.2491   41.6880    8.0219 C.ar    1  UNL1        0.0903
      2 C          11.4013   40.1540    7.2966 C.ar    1  UNL1        0.0809
      3 C          12.1153   39.6829    8.4053 C.ar    1  UNL1       -0.0001
      4 C          11.8367   38.3747    9.0730 C.3     1  UNL1        0.0325
      5 C          13.1641   40.5338    8.8016 C.ar    1  UNL1        0.0847
      6 S          12.0731   41.6290    6.8285 S.2     1  UNL1       -0.0673
      7 C          10.2246   39.5119    6.6652 C.2     1  UNL1        0.2548
      8 C          11.0542   39.7798    4.2910 C.3     1  UNL1        0.0937
      9 C          11.1847   38.5059    3.4609 C.3     1  UNL1        0.0216
     10 C           9.8409   38.1616    2.8203 C.3     1  UNL1        0.0035
     11 C           8.7649   37.9959    3.8924 C.3     1  UNL1        0.0216
     12 C           8.6532   39.2727    4.7215 C.3     1  UNL1        0.0937
     13 N           9.9675   39.6226    5.2545 N.am    1  UNL1       -0.2757
     14 O           9.4168   38.8690    7.3895 O.2     1  UNL1       -0.2694
     15 C          15.6155   42.5732    7.7443 C.2     1  UNL1        0.2430
     16 N          14.2376   42.7208    8.1051 N.am    1  UNL1       -0.2780
     17 O          16.1296   41.4287    7.6336 O.2     1  UNL1       -0.2742
     18 H          13.9471   43.6013    8.4362 H       1  UNL1        0.1553
     19 C          16.4807   43.7840    7.5510 C.3     1  UNL1        0.2653
     20 C          17.8164   43.6590    8.3029 C.3     1  UNL1        0.4138
     21 F          17.6133   43.8833    9.6532 F       1  UNL1       -0.1692
     22 F          18.3595   42.3973    8.1347 F       1  UNL1       -0.1692
     23 F          18.7134   44.6025    7.8368 F       1  UNL1       -0.1692
     24 C          16.6280   44.1551    6.0658 C.3     1  UNL1        0.4138
     25 F          17.8200   43.6724    5.5540 F       1  UNL1       -0.1692
     26 F          16.5958   45.5292    5.9148 F       1  UNL1       -0.1692
     27 F          15.5786   43.6146    5.3441 F       1  UNL1       -0.1692
     28 C          14.1113   40.1839    9.8319 C.1     1  UNL1        0.1019
     29 N          14.8721   39.9053   10.6582 N.1     1  UNL1       -0.1908
@<TRIPOS>BOND
     1     1    16    1
     2     1     6   ar
     3    19    15    1
     4    19    20    1
     5    19    24    1
     6    20    21    1
     7    20    22    1
     8    20    23    1
     9    24    25    1
    10    24    26    1
    11    24    27    1
    12     2     6   ar
    13     2     7    1
    14     3     5   ar
    15     4     3    1
    16     5    28    1
    17     7    13   am
    18     8    13    1
    19     8     9    1
    20     9    10    1
    21    10    11    1
    22    11    12    1
    23    12    13    1
    24    16    15   am
    25    15    17    2
    26     2     3   ar
    27     5     1   ar
    28     7    14    2
    29    28    29    3
    30    16    18    1
@<TRIPOS>MOLECULE
MolPort-002-715-877 2192313 CSSS00160400662 ChemDiv-8013-0437 MCULE-8505220362 PubChem-1826749 ZINC000002192313
 29 30 0 0 0
SMALL
GASTEIGER

@<TRIPOS>ATOM
      1 C          10.3263   40.3471    9.4823 C.ar    1  UNL1        0.0903
      2 C          12.4762   39.3936   10.3554 C.ar    1  UNL1        0.0809
      3 C          11.8279   38.5594    9.4363 C.ar    1  UNL1       -0.0001
      4 C          12.3394   37.2120    9.0390 C.3     1  UNL1        0.0325
      5 C          10.6122   39.0850    8.9598 C.ar    1  UNL1        0.0847
      6 S          11.5379   40.7812   10.5565 S.2     1  UNL1       -0.0673
      7 C          13.7841   39.1445   11.0056 C.2     1  UNL1        0.2548
      8 C          15.1756   39.8128    9.0022 C.3     1  UNL1        0.0937
      9 C          16.1921   40.9312    9.2138 C.3     1  UNL1        0.0216
     10 C          17.4936   40.3542    9.7686 C.3     1  UNL1        0.0035
     11 C          17.2330   39.6107   11.0778 C.3     1  UNL1        0.0216
     12 C          16.2069   38.5030   10.8537 C.3     1  UNL1        0.0937
     13 N          15.0044   39.0697   10.2481 N.am    1  UNL1       -0.2757
     14 O          13.8233   38.9729   12.2545 O.2     1  UNL1       -0.2694
     15 C           8.8161   41.8049    8.0489 C.2     1  UNL1        0.2430
     16 N           9.1455   41.1282    9.2672 N.am    1  UNL1       -0.2780
     17 O           9.7012   42.0295    7.1814 O.2     1  UNL1       -0.2742
     18 H           8.5104   41.2062   10.0154 H       1  UNL1        0.1553
     19 C           7.4215   42.3080    7.8163 C.3     1  UNL1        0.2653
     20 C           7.1032   43.5354    8.6864 C.3     1  UNL1        0.4138
     21 F           6.6563   43.1219    9.9290 F       1  UNL1       -0.1692
     22 F           8.2277   44.3246    8.8541 F       1  UNL1       -0.1692
     23 F           6.1061   44.2899    8.0960 F       1  UNL1       -0.1692
     24 C           7.1221   42.5035    6.3204 C.3     1  UNL1        0.4138
     25 F           8.1312   43.2253    5.7070 F       1  UNL1       -0.1692
     26 F           5.9248   43.1763    6.1604 F       1  UNL1       -0.1692
     27 F           7.0129   41.2705    5.7021 F       1  UNL1       -0.1692
     28 C           9.7145   38.3401    8.1113 C.1     1  UNL1        0.1019
     29 N           8.9930   37.7417    7.4325 N.1     1  UNL1       -0.1908
@<TRIPOS>BOND
     1     1    16    1
     2     1     6   ar
     3    19    15    1
     4    19    20    1
     5    19    24    1
     6    20    21    1
     7    20    22    1
     8    20    23    1
     9    24    25    1
    10    24    26    1
    11    24    27    1
    12     2     6   ar
    13     2     7    1
    14     3     5   ar
    15     4     3    1
    16     5    28    1
    17     7    13   am
    18     8    13    1
    19     8     9    1
    20     9    10    1
    21    10    11    1
    22    11    12    1
    23    12    13    1
    24    16    15   am
    25    15    17    2
    26     2     3   ar
    27     5     1   ar
    28     7    14    2
    29    28    29    3
    30    16    18    1
@<TRIPOS>MOLECULE
MolPort-002-715-877 2192313 CSSS00160400662 ChemDiv-8013-0437 MCULE-8505220362 PubChem-1826749 ZINC000002192313
 29 30 0 0 0
SMALL
GASTEIGER

@<TRIPOS>ATOM
      1 C          11.6335   41.1389    8.6943 C.ar    1  UNL1        0.0903
      2 C          13.6166   42.1356    7.5250 C.ar    1  UNL1        0.0809
      3 C          13.9556   41.1380    8.4474 C.ar    1  UNL1       -0.0001
      4 C          15.3627   40.7288    8.7427 C.3     1  UNL1        0.0325
      5 C          12.8452   40.5911    9.1176 C.ar    1  UNL1        0.0847
      6 S          11.9396   42.3184    7.5430 S.2     1  UNL1       -0.0673
      7 C          14.5474   42.8735    6.6392 C.2     1  UNL1        0.2548
      8 C          16.2141   43.4303    8.4583 C.3     1  UNL1        0.0937
      9 C          17.6510   42.9654    8.2394 C.3     1  UNL1        0.0216
     10 C          18.4095   43.9942    7.4022 C.3     1  UNL1        0.0035
     11 C          17.7072   44.2159    6.0634 C.3     1  UNL1        0.0216
     12 C          16.2685   44.6695    6.2976 C.3     1  UNL1        0.0937
     13 N          15.5918   43.7100    7.1666 N.am    1  UNL1       -0.2757
     14 O          14.4051   42.7807    5.3895 O.2     1  UNL1       -0.2694
     15 C           9.6291   41.6843   10.1590 C.2     1  UNL1        0.2430
     16 N          10.3280   40.8648    9.2154 N.am    1  UNL1       -0.2780
     17 O          10.2477   42.5388   10.8473 O.2     1  UNL1       -0.2742
     18 H           9.8757   40.0492    8.9002 H       1  UNL1        0.1553
     19 C           8.1574   41.4938   10.3823 C.3     1  UNL1        0.2653
     20 C           7.8100   41.4212   11.8786 C.3     1  UNL1        0.4138
     21 F           7.7770   42.6978   12.4114 F       1  UNL1       -0.1692
     22 F           6.5762   40.8239   12.0689 F       1  UNL1       -0.1692
     23 F           8.7726   40.6941   12.5544 F       1  UNL1       -0.1692
     24 C           7.3186   42.5117    9.5912 C.3     1  UNL1        0.4138
     25 F           6.0137   42.5377   10.0518 F       1  UNL1       -0.1692
     26 F           7.3166   42.1828    8.2482 F       1  UNL1       -0.1692
     27 F           7.8677   43.7743    9.7278 F       1  UNL1       -0.1692
     28 C          12.9700   39.6483   10.2022 C.1     1  UNL1        0.1019
     29 N          13.0699   38.8901   11.0709 N.1     1  UNL1       -0.1908
@<TRIPOS>BOND
     1     1    16    1
     2     1     6   ar
     3    19    15    1
     4    19    20    1
     5    19    24    1
     6    20    21    1
     7    20    22    1
     8    20    23    1
     9    24    25    1
    10    24    26    1
    11    24    27    1
    12     2     6   ar
    13     2     7    1
    14     3     5   ar
    15     4     3    1
    16     5    28    1
    17     7    13   am
    18     8    13    1
    19     8     9    1
    20     9    10    1
    21    10    11    1
    22    11    12    1
    23    12    13    1
    24    16    15   am
    25    15    17    2
    26     2     3   ar
    27     5     1   ar
    28     7    14    2
    29    28    29    3
    30    16    18    1
@<TRIPOS>MOLECULE
MolPort-002-715-877 2192313 CSSS00160400662 ChemDiv-8013-0437 MCULE-8505220362 PubChem-1826749 ZINC000002192313
 29 30 0 0 0
SMALL
GASTEIGER

@<TRIPOS>ATOM
      1 C           7.8785   41.4770    9.0385 C.ar    1  UNL1        0.0903
      2 C           9.7727   41.0585    7.4477 C.ar    1  UNL1        0.0809
      3 C          10.0738   42.0006    8.4391 C.ar    1  UNL1       -0.0001
      4 C          11.3804   42.7219    8.5243 C.3     1  UNL1        0.0325
      5 C           9.0055   42.2500    9.3210 C.ar    1  UNL1        0.0847
      6 S           8.1862   40.5361    7.6855 S.2     1  UNL1       -0.0673
      7 C          10.6904   40.5545    6.3994 C.2     1  UNL1        0.2548
      8 C           9.0340   38.9271    5.3970 C.3     1  UNL1        0.0937
      9 C           8.7226   39.0909    3.9120 C.3     1  UNL1        0.0216
     10 C           9.7659   38.3509    3.0762 C.3     1  UNL1        0.0035
     11 C          11.1682   38.8695    3.3910 C.3     1  UNL1        0.0216
     12 C          11.4616   38.7098    4.8805 C.3     1  UNL1        0.0937
     13 N          10.4061   39.3566    5.6559 N.am    1  UNL1       -0.2757
     14 O          11.7594   41.1829    6.1688 O.2     1  UNL1       -0.2694
     15 C           5.3795   41.0246    9.1437 C.2     1  UNL1        0.2430
     16 N           6.6030   41.5328    9.6872 N.am    1  UNL1       -0.2780
     17 O           5.2780   40.7812    7.9121 O.2     1  UNL1       -0.2742
     18 H           6.5643   41.9534   10.5765 H       1  UNL1        0.1553
     19 C           4.1820   40.8312   10.0273 C.3     1  UNL1        0.2653
     20 C           4.5359   40.9949   11.5150 C.3     1  UNL1        0.4138
     21 F           4.5679   42.3394   11.8406 F       1  UNL1       -0.1692
     22 F           3.6013   40.3618   12.3155 F       1  UNL1       -0.1692
     23 F           5.7847   40.4577   11.7675 F       1  UNL1       -0.1692
     24 C           2.9851   41.6813    9.5689 C.3     1  UNL1        0.4138
     25 F           2.2335   41.0038    8.6245 F       1  UNL1       -0.1692
     26 F           3.4299   42.8710    9.0225 F       1  UNL1       -0.1692
     27 F           2.1802   41.9766   10.6549 F       1  UNL1       -0.1692
     28 C           9.0469   43.2777   10.3324 C.1     1  UNL1        0.1019
     29 N           9.0780   44.1016   11.1444 N.1     1  UNL1       -0.1908
@<TRIPOS>BOND
     1     1    16    1
     2     1     6   ar
     3    19    15    1
     4    19    20    1
     5    19    24    1
     6    20    21    1
     7    20    22    1
     8    20    23    1
     9    24    25    1
    10    24    26    1
    11    24    27    1
    12     2     6   ar
    13     2     7    1
    14     3     5   ar
    15     4     3    1
    16     5    28    1
    17     7    13   am
    18     8    13    1
    19     8     9    1
    20     9    10    1
    21    10    11    1
    22    11    12    1
    23    12    13    1
    24    16    15   am
    25    15    17    2
    26     2     3   ar
    27     5     1   ar
    28     7    14    2
    29    28    29    3
    30    16    18    1
