@<TRIPOS>MOLECULE
MolPort-047-071-888 PubChem-132766130
 32 35 0 0 0
SMALL
GASTEIGER

@<TRIPOS>ATOM
      1 C          14.1332   40.2345    9.4399 C.ar    1  UNL1        0.1339
      2 C          13.7977   39.7644   10.7169 C.ar    1  UNL1        0.0345
      3 C          12.5020   39.3132   10.9678 C.ar    1  UNL1        0.0041
      4 C          11.5513   39.3332    9.9482 C.ar    1  UNL1        0.0149
      5 C          11.9143   39.8095    8.6812 C.ar    1  UNL1        0.0617
      6 N          13.1855   40.2431    8.4629 N.ar    1  UNL1       -0.2348
      7 C          10.9282   39.8451    7.5576 C.3     1  UNL1        0.0602
      8 C          11.6329   39.7834    6.1999 C.3     1  UNL1        0.0094
      9 C          10.6083   39.8001    5.0673 C.3     1  UNL1        0.0220
     10 C           9.7434   41.0534    5.1640 C.3     1  UNL1        0.0937
     11 C          10.0367   41.0840    7.6499 C.3     1  UNL1        0.0996
     12 C           7.7208   41.2161    6.6527 C.2     1  UNL1        0.2492
     13 N           9.1448   41.1293    6.4938 N.am    1  UNL1       -0.2757
     14 O           6.9763   41.2501    5.6339 O.2     1  UNL1       -0.2699
     15 C           7.1236   41.2638    7.9969 C.2     1  UNL1        0.0595
     16 C           5.8233   41.0709    8.1992 C.2     1  UNL1        0.0232
     17 C           5.2326   41.1186    9.5409 C.ar    1  UNL1        0.0773
     18 C           5.7877   41.6963   10.6614 C.ar    1  UNL1        0.1175
     19 C           3.8792   40.8440   11.1502 C.ar    1  UNL1        0.1750
     20 N           4.9233   41.5177   11.6767 N.ar    1  UNL1       -0.2225
     21 N           4.0381   40.5827    9.8374 N.ar    1  UNL1       -0.3349
     22 H           3.4206   40.1082    9.2350 H       1  UNL1        0.1675
     23 N          15.4510   40.7091    9.1286 N.pl3   1  UNL1       -0.2680
     24 H          16.1995   40.2078    9.5259 H       1  UNL1        0.1565
     25 C          14.2215   43.7956    5.5675 C.3     1  UNL1        0.0522
     26 C          15.2094   43.3307    6.5753 C.ar    1  UNL1        0.0634
     27 C          16.4366   43.9795    6.6990 C.ar    1  UNL1        0.0296
     28 C          17.3362   43.5137    7.6556 C.ar    1  UNL1        0.0634
     29 C          18.6558   44.1767    7.8205 C.3     1  UNL1        0.0522
     30 C          15.8039   41.8292    8.3057 C.ar    1  UNL1        0.2211
     31 N          17.0067   42.4533    8.4378 N.ar    1  UNL1       -0.2179
     32 N          14.9165   42.2730    7.3763 N.ar    1  UNL1       -0.2179
@<TRIPOS>BOND
     1    25    26    1
     2    26    32   ar
     3    27    28   ar
     4    29    28    1
     5    30    31   ar
     6    30    23    1
     7     1     6   ar
     8     2     3   ar
     9     4     5   ar
    10     7     5    1
    11     7     8    1
    12     8     9    1
    13     9    10    1
    14    10    13    1
    15    11    13    1
    16    11     7    1
    17    12    15    1
    18    16    17    1
    19    18    20   ar
    20    19    21   ar
    21    23     1    1
    22    13    12   am
    23    21    17   ar
    24    26    27   ar
    25    28    31   ar
    26    30    32   ar
    27     1     2   ar
    28     3     4   ar
    29     5     6   ar
    30    12    14    2
    31    15    16    2
    32    17    18   ar
    33    19    20   ar
    34    23    24    1
    35    21    22    1
@<TRIPOS>MOLECULE
MolPort-047-071-888 PubChem-132766130
 32 35 0 0 0
SMALL
GASTEIGER

@<TRIPOS>ATOM
      1 C          11.2623   38.3350    9.4917 C.ar    1  UNL1        0.1339
      2 C          10.8799   37.0926   10.0154 C.ar    1  UNL1        0.0345
      3 C          11.8576   36.1790   10.4089 C.ar    1  UNL1        0.0041
      4 C          13.2062   36.5078   10.2786 C.ar    1  UNL1        0.0149
      5 C          13.5598   37.7569    9.7509 C.ar    1  UNL1        0.0617
      6 N          12.5860   38.6300    9.3754 N.ar    1  UNL1       -0.2348
      7 C          14.9936   38.1528    9.5971 C.3     1  UNL1        0.0602
      8 C          15.9052   37.2808   10.4645 C.3     1  UNL1        0.0094
      9 C          17.3656   37.6872   10.2775 C.3     1  UNL1        0.0220
     10 C          17.5461   39.1615   10.6267 C.3     1  UNL1        0.0937
     11 C          15.1910   39.6339    9.9219 C.3     1  UNL1        0.0996
     12 C          17.0854   41.0258    9.0003 C.2     1  UNL1        0.2492
     13 N          16.6117   39.9646    9.8429 N.am    1  UNL1       -0.2757
     14 O          18.3198   41.2851    8.9511 O.2     1  UNL1       -0.2699
     15 C          16.1400   41.8122    8.1917 C.2     1  UNL1        0.0595
     16 C          16.5004   42.9355    7.5775 C.2     1  UNL1        0.0232
     17 C          15.5549   43.7156    6.7720 C.ar    1  UNL1        0.0773
     18 C          14.2239   43.4290    6.5633 C.ar    1  UNL1        0.1175
     19 C          14.7544   45.2282    5.5198 C.ar    1  UNL1        0.1750
     20 N          13.7243   44.3928    5.7686 N.ar    1  UNL1       -0.2225
     21 N          15.8958   44.8399    6.1227 N.ar    1  UNL1       -0.3349
     22 H          16.7762   45.2795    6.0936 H       1  UNL1        0.1675
     23 N          10.2973   39.3107    9.0726 N.pl3   1  UNL1       -0.2680
     24 H           9.9758   39.9310    9.7662 H       1  UNL1        0.1565
     25 C           6.3571   39.8332    6.2580 C.3     1  UNL1        0.0522
     26 C           7.8343   39.7408    6.3894 C.ar    1  UNL1        0.0634
     27 C           8.6413   39.8249    5.2564 C.ar    1  UNL1        0.0296
     28 C          10.0219   39.7338    5.4209 C.ar    1  UNL1        0.0634
     29 C          10.9188   39.8187    4.2392 C.3     1  UNL1        0.0522
     30 C           9.7471   39.4868    7.7601 C.ar    1  UNL1        0.2211
     31 N          10.5481   39.5674    6.6620 N.ar    1  UNL1       -0.2179
     32 N           8.3983   39.5740    7.6143 N.ar    1  UNL1       -0.2179
@<TRIPOS>BOND
     1    25    26    1
     2    26    32   ar
     3    27    28   ar
     4    29    28    1
     5    30    31   ar
     6    30    23    1
     7     1     6   ar
     8     2     3   ar
     9     4     5   ar
    10     7     5    1
    11     7     8    1
    12     8     9    1
    13     9    10    1
    14    10    13    1
    15    11    13    1
    16    11     7    1
    17    12    15    1
    18    16    17    1
    19    18    20   ar
    20    19    21   ar
    21    23     1    1
    22    13    12   am
    23    21    17   ar
    24    26    27   ar
    25    28    31   ar
    26    30    32   ar
    27     1     2   ar
    28     3     4   ar
    29     5     6   ar
    30    12    14    2
    31    15    16    2
    32    17    18   ar
    33    19    20   ar
    34    23    24    1
    35    21    22    1
@<TRIPOS>MOLECULE
MolPort-047-071-888 PubChem-132766130
 32 35 0 0 0
SMALL
GASTEIGER

@<TRIPOS>ATOM
      1 C          12.1735   40.3072    7.5308 C.ar    1  UNL1        0.1339
      2 C          10.8562   39.8288    7.5217 C.ar    1  UNL1        0.0345
      3 C          10.5206   38.7166    8.2936 C.ar    1  UNL1        0.0041
      4 C          11.4964   38.0897    9.0673 C.ar    1  UNL1        0.0149
      5 C          12.8057   38.5889    9.0564 C.ar    1  UNL1        0.0617
      6 N          13.1063   39.6759    8.2951 N.ar    1  UNL1       -0.2348
      7 C          13.8828   37.9503    9.8738 C.3     1  UNL1        0.0602
      8 C          14.0167   38.6278   11.2402 C.3     1  UNL1        0.0094
      9 C          15.1067   37.9482   12.0666 C.3     1  UNL1        0.0220
     10 C          16.4345   37.9919   11.3161 C.3     1  UNL1        0.0937
     11 C          15.2179   37.9647    9.1285 C.3     1  UNL1        0.0996
     12 C          17.0755   36.3093    9.5578 C.2     1  UNL1        0.2492
     13 N          16.2613   37.4106    9.9877 N.am    1  UNL1       -0.2757
     14 O          17.9669   35.8505   10.3248 O.2     1  UNL1       -0.2699
     15 C          16.8757   35.7107    8.2283 C.2     1  UNL1        0.0595
     16 C          16.2996   34.5227    8.0681 C.2     1  UNL1        0.0232
     17 C          16.1018   33.9303    6.7410 C.ar    1  UNL1        0.0773
     18 C          16.3182   32.6164    6.3888 C.ar    1  UNL1        0.1175
     19 C          15.6303   33.7242    4.6838 C.ar    1  UNL1        0.1750
     20 N          16.0169   32.4945    5.0832 N.ar    1  UNL1       -0.2225
     21 N          15.6711   34.6311    5.6802 N.ar    1  UNL1       -0.3349
     22 H          15.4387   35.5869    5.6393 H       1  UNL1        0.1675
     23 N          12.5715   41.4474    6.7559 N.pl3   1  UNL1       -0.2680
     24 H          11.9413   41.7419    6.0593 H       1  UNL1        0.1565
     25 C          17.0189   41.8889    8.6914 C.3     1  UNL1        0.0522
     26 C          15.9430   42.4251    7.8180 C.ar    1  UNL1        0.0634
     27 C          16.1265   43.6334    7.1483 C.ar    1  UNL1        0.0296
     28 C          15.0942   44.1029    6.3387 C.ar    1  UNL1        0.0634
     29 C          15.2485   45.3868    5.6068 C.3     1  UNL1        0.0522
     30 C          13.7813   42.2075    6.8790 C.ar    1  UNL1        0.2211
     31 N          13.9464   43.3866    6.2185 N.ar    1  UNL1       -0.2179
     32 N          14.7802   41.7375    7.6724 N.ar    1  UNL1       -0.2179
@<TRIPOS>BOND
     1    25    26    1
     2    26    32   ar
     3    27    28   ar
     4    29    28    1
     5    30    31   ar
     6    30    23    1
     7     1     6   ar
     8     2     3   ar
     9     4     5   ar
    10     7     5    1
    11     7     8    1
    12     8     9    1
    13     9    10    1
    14    10    13    1
    15    11    13    1
    16    11     7    1
    17    12    15    1
    18    16    17    1
    19    18    20   ar
    20    19    21   ar
    21    23     1    1
    22    13    12   am
    23    21    17   ar
    24    26    27   ar
    25    28    31   ar
    26    30    32   ar
    27     1     2   ar
    28     3     4   ar
    29     5     6   ar
    30    12    14    2
    31    15    16    2
    32    17    18   ar
    33    19    20   ar
    34    23    24    1
    35    21    22    1
@<TRIPOS>MOLECULE
MolPort-047-071-888 PubChem-132766130
 32 35 0 0 0
SMALL
GASTEIGER

@<TRIPOS>ATOM
      1 C          13.1626   42.6204    6.1667 C.ar    1  UNL1        0.1339
      2 C          13.9927   43.5033    5.4628 C.ar    1  UNL1        0.0345
      3 C          15.3065   43.7016    5.8870 C.ar    1  UNL1        0.0041
      4 C          15.7838   43.0213    7.0064 C.ar    1  UNL1        0.0149
      5 C          14.9314   42.1452    7.6917 C.ar    1  UNL1        0.0617
      6 N          13.6542   41.9694    7.2563 N.ar    1  UNL1       -0.2348
      7 C          15.4024   41.3920    8.8946 C.3     1  UNL1        0.0602
      8 C          16.8791   41.0093    8.7654 C.3     1  UNL1        0.0094
      9 C          17.3456   40.2597   10.0117 C.3     1  UNL1        0.0220
     10 C          16.4878   39.0159   10.2245 C.3     1  UNL1        0.0937
     11 C          14.5404   40.1526    9.1373 C.3     1  UNL1        0.0996
     12 C          14.2626   39.0652   11.3991 C.2     1  UNL1        0.2492
     13 N          15.0791   39.3984   10.2664 N.am    1  UNL1       -0.2757
     14 O          14.7583   38.4152   12.3610 O.2     1  UNL1       -0.2699
     15 C          12.8510   39.4789   11.4462 C.2     1  UNL1        0.0595
     16 C          12.4181   40.5826   10.8436 C.2     1  UNL1        0.0232
     17 C          11.0102   40.9906   10.8926 C.ar    1  UNL1        0.0773
     18 C          10.2788   41.5388    9.8621 C.ar    1  UNL1        0.1175
     19 C           9.0481   41.3530   11.6109 C.ar    1  UNL1        0.1750
     20 N           9.0365   41.7654   10.3260 N.ar    1  UNL1       -0.2225
     21 N          10.2480   40.8706   11.9911 N.ar    1  UNL1       -0.3349
     22 H          10.5059   40.5129   12.8713 H       1  UNL1        0.1675
     23 N          11.8040   42.3799    5.7727 N.pl3   1  UNL1       -0.2680
     24 H          11.2847   43.1692    5.4959 H       1  UNL1        0.1565
     25 C           9.5779   38.9417    3.1377 C.3     1  UNL1        0.0522
     26 C          10.0326   39.4500    4.4579 C.ar    1  UNL1        0.0634
     27 C           9.7855   38.7098    5.6124 C.ar    1  UNL1        0.0296
     28 C          10.2276   39.2201    6.8312 C.ar    1  UNL1        0.0634
     29 C           9.9848   38.4629    8.0865 C.3     1  UNL1        0.0522
     30 C          11.1152   41.1227    5.7355 C.ar    1  UNL1        0.2211
     31 N          10.8808   40.4104    6.8718 N.ar    1  UNL1       -0.2179
     32 N          10.6893   40.6367    4.5394 N.ar    1  UNL1       -0.2179
@<TRIPOS>BOND
     1    25    26    1
     2    26    32   ar
     3    27    28   ar
     4    29    28    1
     5    30    31   ar
     6    30    23    1
     7     1     6   ar
     8     2     3   ar
     9     4     5   ar
    10     7     5    1
    11     7     8    1
    12     8     9    1
    13     9    10    1
    14    10    13    1
    15    11    13    1
    16    11     7    1
    17    12    15    1
    18    16    17    1
    19    18    20   ar
    20    19    21   ar
    21    23     1    1
    22    13    12   am
    23    21    17   ar
    24    26    27   ar
    25    28    31   ar
    26    30    32   ar
    27     1     2   ar
    28     3     4   ar
    29     5     6   ar
    30    12    14    2
    31    15    16    2
    32    17    18   ar
    33    19    20   ar
    34    23    24    1
    35    21    22    1
@<TRIPOS>MOLECULE
MolPort-047-071-888 PubChem-132766130
 32 35 0 0 0
SMALL
GASTEIGER

@<TRIPOS>ATOM
      1 C          14.1053   40.5391    9.5152 C.ar    1  UNL1        0.1339
      2 C          14.0534   39.6586   10.6044 C.ar    1  UNL1        0.0345
      3 C          12.8728   39.5356   11.3367 C.ar    1  UNL1        0.0041
      4 C          11.7545   40.2883   10.9808 C.ar    1  UNL1        0.0149
      5 C          11.8352   41.1616    9.8878 C.ar    1  UNL1        0.0617
      6 N          12.9989   41.2620    9.1897 N.ar    1  UNL1       -0.2348
      7 C          10.6594   41.9849    9.4684 C.3     1  UNL1        0.0602
      8 C          10.3694   43.0940   10.4831 C.3     1  UNL1        0.0094
      9 C           9.1793   43.9352   10.0264 C.3     1  UNL1        0.0220
     10 C           7.9527   43.0470    9.8405 C.3     1  UNL1        0.0937
     11 C           9.4246   41.1085    9.2556 C.3     1  UNL1        0.0996
     12 C           7.5087   41.7392    7.7366 C.2     1  UNL1        0.2492
     13 N           8.2783   41.9532    8.9294 N.am    1  UNL1       -0.2757
     14 O           6.5256   42.4884    7.4808 O.2     1  UNL1       -0.2699
     15 C           7.8607   40.6521    6.8091 C.2     1  UNL1        0.0595
     16 C           8.8489   40.7690    5.9267 C.2     1  UNL1        0.0232
     17 C           9.1968   39.6826    5.0047 C.ar    1  UNL1        0.0773
     18 C           9.3400   38.3504    5.3238 C.ar    1  UNL1        0.1175
     19 C           9.7053   38.6414    3.2287 C.ar    1  UNL1        0.1750
     20 N           9.6624   37.6976    4.1924 N.ar    1  UNL1       -0.2225
     21 N           9.4235   39.8741    3.6956 N.ar    1  UNL1       -0.3349
     22 H           9.3915   40.7198    3.1925 H       1  UNL1        0.1675
     23 N          15.2941   40.7030    8.7286 N.pl3   1  UNL1       -0.2680
     24 H          15.8904   39.9217    8.6729 H       1  UNL1        0.1565
     25 C          14.2984   44.1143    5.3982 C.3     1  UNL1        0.0522
     26 C          15.2331   43.5326    6.3961 C.ar    1  UNL1        0.0634
     27 C          16.4760   44.1239    6.6143 C.ar    1  UNL1        0.0296
     28 C          17.3243   43.5488    7.5582 C.ar    1  UNL1        0.0634
     29 C          18.6585   44.1475    7.8218 C.3     1  UNL1        0.0522
     30 C          15.7138   41.8734    8.0142 C.ar    1  UNL1        0.2211
     31 N          16.9313   42.4403    8.2379 N.ar    1  UNL1       -0.2179
     32 N          14.8761   42.4240    7.0959 N.ar    1  UNL1       -0.2179
@<TRIPOS>BOND
     1    25    26    1
     2    26    32   ar
     3    27    28   ar
     4    29    28    1
     5    30    31   ar
     6    30    23    1
     7     1     6   ar
     8     2     3   ar
     9     4     5   ar
    10     7     5    1
    11     7     8    1
    12     8     9    1
    13     9    10    1
    14    10    13    1
    15    11    13    1
    16    11     7    1
    17    12    15    1
    18    16    17    1
    19    18    20   ar
    20    19    21   ar
    21    23     1    1
    22    13    12   am
    23    21    17   ar
    24    26    27   ar
    25    28    31   ar
    26    30    32   ar
    27     1     2   ar
    28     3     4   ar
    29     5     6   ar
    30    12    14    2
    31    15    16    2
    32    17    18   ar
    33    19    20   ar
    34    23    24    1
    35    21    22    1
@<TRIPOS>MOLECULE
MolPort-047-071-888 PubChem-132766130
 32 35 0 0 0
SMALL
GASTEIGER

@<TRIPOS>ATOM
      1 C           8.3594   40.9398    8.2794 C.ar    1  UNL1        0.1339
      2 C           7.6288   40.2902    7.2752 C.ar    1  UNL1        0.0345
      3 C           8.1914   39.2038    6.6054 C.ar    1  UNL1        0.0041
      4 C           9.4746   38.7727    6.9389 C.ar    1  UNL1        0.0149
      5 C          10.1827   39.4415    7.9464 C.ar    1  UNL1        0.0617
      6 N           9.6102   40.4981    8.5848 N.ar    1  UNL1       -0.2348
      7 C          11.5597   39.0107    8.3392 C.3     1  UNL1        0.0602
      8 C          11.5162   37.7896    9.2616 C.3     1  UNL1        0.0094
      9 C          12.9317   37.3534    9.6342 C.3     1  UNL1        0.0220
     10 C          13.6730   38.5050   10.3068 C.3     1  UNL1        0.0937
     11 C          12.3268   40.1590    8.9959 C.3     1  UNL1        0.0996
     12 C          14.8464   40.3222    9.0205 C.2     1  UNL1        0.2492
     13 N          13.6332   39.6803    9.4409 N.am    1  UNL1       -0.2757
     14 O          15.9603   39.8826    9.4196 O.2     1  UNL1       -0.2699
     15 C          14.7989   41.4891    8.1249 C.2     1  UNL1        0.0595
     16 C          15.8348   42.3106    7.9799 C.2     1  UNL1        0.0232
     17 C          15.7833   43.4719    7.0856 C.ar    1  UNL1        0.0773
     18 C          16.8604   44.1582    6.5696 C.ar    1  UNL1        0.1175
     19 C          15.0321   45.0399    5.8714 C.ar    1  UNL1        0.1750
     20 N          16.3752   45.1503    5.8013 N.ar    1  UNL1       -0.2225
     21 N          14.6349   44.0167    6.6540 N.ar    1  UNL1       -0.3349
     22 H          13.7148   43.7342    6.8611 H       1  UNL1        0.1675
     23 N           7.8275   42.0612    8.9993 N.pl3   1  UNL1       -0.2680
     24 H           8.4845   42.7066    9.3471 H       1  UNL1        0.1565
     25 C           3.7868   41.0328   11.5164 C.3     1  UNL1        0.0522
     26 C           4.4840   41.8531   10.4922 C.ar    1  UNL1        0.0634
     27 C           3.7985   42.8682    9.8276 C.ar    1  UNL1        0.0296
     28 C           4.4870   43.6153    8.8740 C.ar    1  UNL1        0.0634
     29 C           3.7937   44.7070    8.1422 C.3     1  UNL1        0.0522
     30 C           6.4494   42.3505    9.2707 C.ar    1  UNL1        0.2211
     31 N           5.7925   43.3455    8.6135 N.ar    1  UNL1       -0.2179
     32 N           5.7899   41.6136   10.2036 N.ar    1  UNL1       -0.2179
@<TRIPOS>BOND
     1    25    26    1
     2    26    32   ar
     3    27    28   ar
     4    29    28    1
     5    30    31   ar
     6    30    23    1
     7     1     6   ar
     8     2     3   ar
     9     4     5   ar
    10     7     5    1
    11     7     8    1
    12     8     9    1
    13     9    10    1
    14    10    13    1
    15    11    13    1
    16    11     7    1
    17    12    15    1
    18    16    17    1
    19    18    20   ar
    20    19    21   ar
    21    23     1    1
    22    13    12   am
    23    21    17   ar
    24    26    27   ar
    25    28    31   ar
    26    30    32   ar
    27     1     2   ar
    28     3     4   ar
    29     5     6   ar
    30    12    14    2
    31    15    16    2
    32    17    18   ar
    33    19    20   ar
    34    23    24    1
    35    21    22    1
@<TRIPOS>MOLECULE
MolPort-047-071-888 PubChem-132766130
 32 35 0 0 0
SMALL
GASTEIGER

@<TRIPOS>ATOM
      1 C           8.3453   40.9510    8.1372 C.ar    1  UNL1        0.1339
      2 C           7.6097   40.2665    7.1603 C.ar    1  UNL1        0.0345
      3 C           8.1616   39.1459    6.5398 C.ar    1  UNL1        0.0041
      4 C           9.4391   38.7153    6.8952 C.ar    1  UNL1        0.0149
      5 C          10.1524   39.4195    7.8746 C.ar    1  UNL1        0.0617
      6 N           9.5904   40.5091    8.4649 N.ar    1  UNL1       -0.2348
      7 C          11.5237   38.9908    8.2895 C.3     1  UNL1        0.0602
      8 C          11.4653   37.7951    9.2437 C.3     1  UNL1        0.0094
      9 C          12.8752   37.3602    9.6387 C.3     1  UNL1        0.0220
     10 C          13.6186   38.5248   10.2862 C.3     1  UNL1        0.0937
     11 C          12.2930   40.1515    8.9213 C.3     1  UNL1        0.0996
     12 C          14.8133   40.2998    8.9611 C.2     1  UNL1        0.2492
     13 N          13.5929   39.6768    9.3890 N.am    1  UNL1       -0.2757
     14 O          15.9213   39.8642    9.3805 O.2     1  UNL1       -0.2699
     15 C          14.7801   41.4427    8.0345 C.2     1  UNL1        0.0595
     16 C          15.7303   42.3731    8.0265 C.2     1  UNL1        0.0232
     17 C          15.6935   43.5101    7.1006 C.ar    1  UNL1        0.0773
     18 C          16.7778   44.2028    6.6089 C.ar    1  UNL1        0.1175
     19 C          14.9631   45.0322    5.8174 C.ar    1  UNL1        0.1750
     20 N          16.3058   45.1658    5.7965 N.ar    1  UNL1       -0.2225
     21 N          14.5536   44.0222    6.6106 N.ar    1  UNL1       -0.3349
     22 H          13.6312   43.7280    6.7893 H       1  UNL1        0.1675
     23 N           7.8245   42.1085    8.8063 N.pl3   1  UNL1       -0.2680
     24 H           8.4804   42.7988    9.0564 H       1  UNL1        0.1565
     25 C           3.7874   44.7279    8.0575 C.3     1  UNL1        0.0522
     26 C           4.4954   43.6473    8.7916 C.ar    1  UNL1        0.0634
     27 C           3.8317   42.9285    9.7839 C.ar    1  UNL1        0.0296
     28 C           4.5298   41.9230   10.4496 C.ar    1  UNL1        0.0634
     29 C           3.8598   41.1323   11.5145 C.3     1  UNL1        0.0522
     30 C           6.4589   42.3760    9.1529 C.ar    1  UNL1        0.2211
     31 N           5.8233   41.6654   10.1248 N.ar    1  UNL1       -0.2179
     32 N           5.7900   43.3600    8.4953 N.ar    1  UNL1       -0.2179
@<TRIPOS>BOND
     1    25    26    1
     2    26    32   ar
     3    27    28   ar
     4    29    28    1
     5    30    31   ar
     6    30    23    1
     7     1     6   ar
     8     2     3   ar
     9     4     5   ar
    10     7     5    1
    11     7     8    1
    12     8     9    1
    13     9    10    1
    14    10    13    1
    15    11    13    1
    16    11     7    1
    17    12    15    1
    18    16    17    1
    19    18    20   ar
    20    19    21   ar
    21    23     1    1
    22    13    12   am
    23    21    17   ar
    24    26    27   ar
    25    28    31   ar
    26    30    32   ar
    27     1     2   ar
    28     3     4   ar
    29     5     6   ar
    30    12    14    2
    31    15    16    2
    32    17    18   ar
    33    19    20   ar
    34    23    24    1
    35    21    22    1
@<TRIPOS>MOLECULE
MolPort-047-071-888 PubChem-132766130
 32 35 0 0 0
SMALL
GASTEIGER

@<TRIPOS>ATOM
      1 C           5.1854   43.3961    8.5466 C.ar    1  UNL1        0.1339
      2 C           5.4289   44.1555    7.3942 C.ar    1  UNL1        0.0345
      3 C           6.6818   44.1008    6.7837 C.ar    1  UNL1        0.0041
      4 C           7.6814   43.2925    7.3235 C.ar    1  UNL1        0.0149
      5 C           7.4103   42.5447    8.4772 C.ar    1  UNL1        0.0617
      6 N           6.1792   42.6156    9.0525 N.ar    1  UNL1       -0.2348
      7 C           8.4512   41.6617    9.0878 C.3     1  UNL1        0.0602
      8 C           8.6565   41.9896   10.5690 C.3     1  UNL1        0.0094
      9 C           9.7075   41.0639   11.1784 C.3     1  UNL1        0.0220
     10 C          11.0224   41.1930   10.4153 C.3     1  UNL1        0.0937
     11 C           9.7714   41.7608    8.3226 C.3     1  UNL1        0.0996
     12 C          11.5103   39.9302    8.2937 C.2     1  UNL1        0.2492
     13 N          10.7855   40.9521    8.9946 N.am    1  UNL1       -0.2757
     14 O          12.3783   39.2458    8.9032 O.2     1  UNL1       -0.2699
     15 C          11.2455   39.6745    6.8688 C.2     1  UNL1        0.0595
     16 C          10.0696   39.2267    6.4382 C.2     1  UNL1        0.0232
     17 C           9.8100   38.9741    5.0170 C.ar    1  UNL1        0.0773
     18 C           9.1416   39.8049    4.1450 C.ar    1  UNL1        0.1175
     19 C           9.7758   38.0295    3.1187 C.ar    1  UNL1        0.1750
     20 N           9.1246   39.1985    2.9441 N.ar    1  UNL1       -0.2225
     21 N          10.2106   37.8605    4.3834 N.ar    1  UNL1       -0.3349
     22 H          10.7072   37.0967    4.7563 H       1  UNL1        0.1675
     23 N           3.9148   43.4156    9.2131 N.pl3   1  UNL1       -0.2680
     24 H           3.2449   44.0419    8.8551 H       1  UNL1        0.1565
     25 C           4.5848   39.4586   11.9723 C.3     1  UNL1        0.0522
     26 C           3.8309   40.7060   11.6832 C.ar    1  UNL1        0.0634
     27 C           2.7633   41.0794   12.4973 C.ar    1  UNL1        0.0296
     28 C           2.0813   42.2558   12.1935 C.ar    1  UNL1        0.0634
     29 C           0.9370   42.6907   13.0358 C.3     1  UNL1        0.0522
     30 C           3.5081   42.6281   10.3404 C.ar    1  UNL1        0.2211
     31 N           2.4629   43.0055   11.1270 N.ar    1  UNL1       -0.2179
     32 N           4.1824   41.4825   10.6251 N.ar    1  UNL1       -0.2179
@<TRIPOS>BOND
     1    25    26    1
     2    26    32   ar
     3    27    28   ar
     4    29    28    1
     5    30    31   ar
     6    30    23    1
     7     1     6   ar
     8     2     3   ar
     9     4     5   ar
    10     7     5    1
    11     7     8    1
    12     8     9    1
    13     9    10    1
    14    10    13    1
    15    11    13    1
    16    11     7    1
    17    12    15    1
    18    16    17    1
    19    18    20   ar
    20    19    21   ar
    21    23     1    1
    22    13    12   am
    23    21    17   ar
    24    26    27   ar
    25    28    31   ar
    26    30    32   ar
    27     1     2   ar
    28     3     4   ar
    29     5     6   ar
    30    12    14    2
    31    15    16    2
    32    17    18   ar
    33    19    20   ar
    34    23    24    1
    35    21    22    1
@<TRIPOS>MOLECULE
MolPort-047-071-888 PubChem-132766130
 32 35 0 0 0
SMALL
GASTEIGER

@<TRIPOS>ATOM
      1 C          14.2338   39.7478    9.1151 C.ar    1  UNL1        0.1339
      2 C          14.0370   38.7401   10.0690 C.ar    1  UNL1        0.0345
      3 C          12.8434   38.0184   10.0743 C.ar    1  UNL1        0.0041
      4 C          11.8562   38.3043    9.1322 C.ar    1  UNL1        0.0149
      5 C          12.0796   39.3179    8.1907 C.ar    1  UNL1        0.0617
      6 N          13.2533   40.0062    8.2070 N.ar    1  UNL1       -0.2348
      7 C          11.0502   39.6552    7.1597 C.3     1  UNL1        0.0602
      8 C          11.5909   39.4355    5.7444 C.3     1  UNL1        0.0094
      9 C          10.5187   39.7656    4.7080 C.3     1  UNL1        0.0220
     10 C          10.0494   41.2069    4.8830 C.3     1  UNL1        0.0937
     11 C          10.5512   41.0902    7.3327 C.3     1  UNL1        0.0996
     12 C           8.2875   41.8863    6.5467 C.2     1  UNL1        0.2492
     13 N           9.6118   41.4115    6.2611 N.am    1  UNL1       -0.2757
     14 O           7.4978   42.1522    5.5986 O.2     1  UNL1       -0.2699
     15 C           7.8447   42.0631    7.9390 C.2     1  UNL1        0.0595
     16 C           8.3184   41.3147    8.9311 C.2     1  UNL1        0.0232
     17 C           7.8747   41.4949   10.3175 C.ar    1  UNL1        0.0773
     18 C           8.6453   41.9219   11.3763 C.ar    1  UNL1        0.1175
     19 C           6.6404   41.5402   12.0412 C.ar    1  UNL1        0.1750
     20 N           7.8551   41.9477   12.4649 N.ar    1  UNL1       -0.2225
     21 N           6.6184   41.2536   10.7242 N.ar    1  UNL1       -0.3349
     22 H           5.8568   40.9398   10.1851 H       1  UNL1        0.1675
     23 N          15.4426   40.5193    9.0654 N.pl3   1  UNL1       -0.2680
     24 H          16.1830   40.2055    9.6334 H       1  UNL1        0.1565
     25 C          18.4989   44.1059    7.8344 C.3     1  UNL1        0.0522
     26 C          17.1797   43.4389    7.6836 C.ar    1  UNL1        0.0634
     27 C          16.2329   43.9582    6.8029 C.ar    1  UNL1        0.0296
     28 C          15.0077   43.3043    6.6896 C.ar    1  UNL1        0.0634
     29 C          13.9700   43.8246    5.7621 C.3     1  UNL1        0.0522
     30 C          15.6968   41.6945    8.2840 C.ar    1  UNL1        0.2211
     31 N          14.7621   42.1905    7.4273 N.ar    1  UNL1       -0.2179
     32 N          16.8965   42.3225    8.4046 N.ar    1  UNL1       -0.2179
@<TRIPOS>BOND
     1    25    26    1
     2    26    32   ar
     3    27    28   ar
     4    29    28    1
     5    30    31   ar
     6    30    23    1
     7     1     6   ar
     8     2     3   ar
     9     4     5   ar
    10     7     5    1
    11     7     8    1
    12     8     9    1
    13     9    10    1
    14    10    13    1
    15    11    13    1
    16    11     7    1
    17    12    15    1
    18    16    17    1
    19    18    20   ar
    20    19    21   ar
    21    23     1    1
    22    13    12   am
    23    21    17   ar
    24    26    27   ar
    25    28    31   ar
    26    30    32   ar
    27     1     2   ar
    28     3     4   ar
    29     5     6   ar
    30    12    14    2
    31    15    16    2
    32    17    18   ar
    33    19    20   ar
    34    23    24    1
    35    21    22    1
@<TRIPOS>MOLECULE
MolPort-047-071-888 PubChem-132766130
 32 35 0 0 0
SMALL
GASTEIGER

@<TRIPOS>ATOM
      1 C          12.6842   42.1154    6.3447 C.ar    1  UNL1        0.1339
      2 C          13.8007   42.9205    6.0814 C.ar    1  UNL1        0.0345
      3 C          14.9483   42.7858    6.8627 C.ar    1  UNL1        0.0041
      4 C          14.9764   41.8530    7.8984 C.ar    1  UNL1        0.0149
      5 C          13.8451   41.0620    8.1399 C.ar    1  UNL1        0.0617
      6 N          12.7387   41.2129    7.3622 N.ar    1  UNL1       -0.2348
      7 C          13.8325   40.0463    9.2373 C.3     1  UNL1        0.0602
      8 C          12.8281   40.4232   10.3295 C.3     1  UNL1        0.0094
      9 C          12.8158   39.3638   11.4297 C.3     1  UNL1        0.0220
     10 C          14.2140   39.2079   12.0202 C.3     1  UNL1        0.0937
     11 C          15.2307   39.8599    9.8276 C.3     1  UNL1        0.0996
     12 C          15.9868   37.7493   10.9892 C.2     1  UNL1        0.2492
     13 N          15.1654   38.9258   10.9489 N.am    1  UNL1       -0.2757
     14 O          15.9048   36.9596   11.9705 O.2     1  UNL1       -0.2699
     15 C          16.9229   37.4575    9.8917 C.2     1  UNL1        0.0595
     16 C          16.8748   36.3187    9.2064 C.2     1  UNL1        0.0232
     17 C          17.8093   36.0324    8.1128 C.ar    1  UNL1        0.0773
     18 C          19.1790   35.9248    8.2115 C.ar    1  UNL1        0.1175
     19 C          18.5676   35.6090    6.1783 C.ar    1  UNL1        0.1750
     20 N          19.6515   35.6563    6.9808 N.ar    1  UNL1       -0.2225
     21 N          17.4177   35.8363    6.8439 N.ar    1  UNL1       -0.3349
     22 H          16.5020   35.8543    6.4828 H       1  UNL1        0.1675
     23 N          11.4795   42.2132    5.5714 N.pl3   1  UNL1       -0.2680
     24 H          11.3664   43.0367    5.0440 H       1  UNL1        0.1565
     25 C           9.5343   38.3931    3.2600 C.3     1  UNL1        0.0522
     26 C           9.4732   39.3935    4.3570 C.ar    1  UNL1        0.0634
     27 C           8.4091   39.3770    5.2567 C.ar    1  UNL1        0.0296
     28 C           8.3877   40.3316    6.2715 C.ar    1  UNL1        0.0634
     29 C           7.2715   40.3495    7.2521 C.3     1  UNL1        0.0522
     30 C          10.4213   41.2499    5.4781 C.ar    1  UNL1        0.2211
     31 N           9.3879   41.2460    6.3645 N.ar    1  UNL1       -0.2179
     32 N          10.4549   40.3244    4.4829 N.ar    1  UNL1       -0.2179
@<TRIPOS>BOND
     1    25    26    1
     2    26    32   ar
     3    27    28   ar
     4    29    28    1
     5    30    31   ar
     6    30    23    1
     7     1     6   ar
     8     2     3   ar
     9     4     5   ar
    10     7     5    1
    11     7     8    1
    12     8     9    1
    13     9    10    1
    14    10    13    1
    15    11    13    1
    16    11     7    1
    17    12    15    1
    18    16    17    1
    19    18    20   ar
    20    19    21   ar
    21    23     1    1
    22    13    12   am
    23    21    17   ar
    24    26    27   ar
    25    28    31   ar
    26    30    32   ar
    27     1     2   ar
    28     3     4   ar
    29     5     6   ar
    30    12    14    2
    31    15    16    2
    32    17    18   ar
    33    19    20   ar
    34    23    24    1
    35    21    22    1
