@<TRIPOS>MOLECULE
MolPort-039-222-430 299785593 CSSS00160175489 MCULE-2234487371 PubChem-118781283 ZINC000299785593
 28 30 0 0 0
SMALL
GASTEIGER

@<TRIPOS>ATOM
      1 C           8.5607   42.5629    7.9251 C.2     1  UNL1        0.3077
      2 C          10.9032   41.8290    7.3889 C.3     1  UNL1        0.0987
      3 C          11.5446   40.4534    7.5583 C.3     1  UNL1        0.0651
      4 C          11.9330   40.2041    9.0204 C.3     1  UNL1        0.1693
      5 C          10.7114   40.3594    9.9275 C.3     1  UNL1        0.0651
      6 C          10.0699   41.7350    9.7538 C.3     1  UNL1        0.0987
      7 O           8.3802   42.8562    6.7119 O.2     1  UNL1       -0.2522
      8 N           7.5266   42.7971    8.8936 N.am    1  UNL1       -0.2680
      9 N           9.8050   41.9840    8.3394 N.am    1  UNL1       -0.2637
     10 H           7.7285   42.5423    9.8229 H       1  UNL1        0.1564
     11 C           3.8375   43.3121    9.0798 C.ar    1  UNL1        0.1398
     12 C           3.6668   44.4138    8.2266 C.ar    1  UNL1        0.0370
     13 C           4.7698   44.9871    7.5897 C.ar    1  UNL1        0.0044
     14 C           6.0475   44.4632    7.8013 C.ar    1  UNL1        0.0149
     15 C           6.2312   43.3624    8.6513 C.ar    1  UNL1        0.0546
     16 C           5.1207   42.7947    9.2854 C.ar    1  UNL1        0.0516
     17 O           2.7550   42.7149    9.7313 O.3     1  UNL1       -0.4754
     18 C           2.4396   41.3350    9.5923 C.3     1  UNL1        0.2054
     19 C           3.6635   40.4821    9.8880 C.3     1  UNL1        0.0473
     20 C           5.3450   40.7239   11.7178 C.3     1  UNL1        0.0001
     21 C           3.9080   40.3709   11.3843 C.3     1  UNL1        0.0038
     22 O          12.9670   41.0956    9.4342 O.3     1  UNL1       -0.4790
     23 C          13.8782   41.6835    8.5498 C.ar    1  UNL1        0.1415
     24 C          13.4649   42.5742    7.5483 C.ar    1  UNL1        0.0576
     25 C          14.4148   43.1306    6.6892 C.ar    1  UNL1        0.1020
     26 C          16.1532   41.9447    7.7872 C.ar    1  UNL1        0.1020
     27 C          15.2337   41.3673    8.6659 C.ar    1  UNL1        0.0576
     28 N          15.7288   42.8075    6.8251 N.ar    1  UNL1       -0.2421
@<TRIPOS>BOND
     1    20    21    1
     2    21    19    1
     3    19    18    1
     4    18    17    1
     5    11    17    1
     6    12    13   ar
     7    14    15   ar
     8    15     8    1
     9     1     9   am
    10     2     9    1
    11     2     3    1
    12     3     4    1
    13     4     5    1
    14     4    22    1
    15     5     6    1
    16     6     9    1
    17    23    22    1
    18    24    25   ar
    19    26    28   ar
    20    27    23   ar
    21    16    11   ar
    22     8     1   am
    23    11    12   ar
    24    13    14   ar
    25    15    16   ar
    26     1     7    2
    27    23    24   ar
    28    25    28   ar
    29    26    27   ar
    30     8    10    1
@<TRIPOS>MOLECULE
MolPort-039-222-430 299785593 CSSS00160175489 MCULE-2234487371 PubChem-118781283 ZINC000299785593
 28 30 0 0 0
SMALL
GASTEIGER

@<TRIPOS>ATOM
      1 C           8.4278   41.5973    8.4693 C.2     1  UNL1        0.3077
      2 C          10.3867   40.0356    8.2768 C.3     1  UNL1        0.0987
      3 C          10.9145   39.0224    9.2903 C.3     1  UNL1        0.0651
      4 C          11.7326   39.7157   10.3862 C.3     1  UNL1        0.1693
      5 C          10.8939   40.7960   11.0707 C.3     1  UNL1        0.0651
      6 C          10.3647   41.8065   10.0544 C.3     1  UNL1        0.0987
      7 O           7.8905   41.0380    7.4749 O.2     1  UNL1       -0.2522
      8 N           7.7930   42.7160    9.1080 N.am    1  UNL1       -0.2680
      9 N           9.6782   41.1078    8.9712 N.am    1  UNL1       -0.2637
     10 H           8.2615   43.1048    9.8816 H       1  UNL1        0.1564
     11 C           4.1297   43.4031    8.9748 C.ar    1  UNL1        0.1398
     12 C           4.0797   44.4715    8.0656 C.ar    1  UNL1        0.0370
     13 C           5.2556   44.9656    7.4962 C.ar    1  UNL1        0.0044
     14 C           6.4861   44.3953    7.8317 C.ar    1  UNL1        0.0149
     15 C           6.5492   43.3270    8.7388 C.ar    1  UNL1        0.0546
     16 C           5.3664   42.8388    9.3045 C.ar    1  UNL1        0.0516
     17 O           2.9719   42.8850    9.5613 O.3     1  UNL1       -0.4754
     18 C           2.5625   41.5334    9.3919 C.3     1  UNL1        0.2054
     19 C           3.7074   40.5899    9.7262 C.3     1  UNL1        0.0473
     20 C           5.1743   40.6570   11.7456 C.3     1  UNL1        0.0001
     21 C           3.7884   40.3314   11.2220 C.3     1  UNL1        0.0038
     22 O          12.9248   40.2872    9.8502 O.3     1  UNL1       -0.4790
     23 C          14.2105   39.8981   10.2423 C.ar    1  UNL1        0.1415
     24 C          14.4249   39.0777   11.3593 C.ar    1  UNL1        0.0576
     25 C          15.7288   38.7214   11.7098 C.ar    1  UNL1        0.1020
     26 C          16.5966   39.9682    9.8859 C.ar    1  UNL1        0.1020
     27 C          15.3077   40.3465    9.5032 C.ar    1  UNL1        0.0576
     28 N          16.7796   39.1699   10.9720 N.ar    1  UNL1       -0.2421
@<TRIPOS>BOND
     1    20    21    1
     2    21    19    1
     3    19    18    1
     4    18    17    1
     5    11    17    1
     6    12    13   ar
     7    14    15   ar
     8    15     8    1
     9     1     9   am
    10     2     9    1
    11     2     3    1
    12     3     4    1
    13     4     5    1
    14     4    22    1
    15     5     6    1
    16     6     9    1
    17    23    22    1
    18    24    25   ar
    19    26    28   ar
    20    27    23   ar
    21    16    11   ar
    22     8     1   am
    23    11    12   ar
    24    13    14   ar
    25    15    16   ar
    26     1     7    2
    27    23    24   ar
    28    25    28   ar
    29    26    27   ar
    30     8    10    1
@<TRIPOS>MOLECULE
MolPort-039-222-430 299785593 CSSS00160175489 MCULE-2234487371 PubChem-118781283 ZINC000299785593
 28 30 0 0 0
SMALL
GASTEIGER

@<TRIPOS>ATOM
      1 C           9.9992   41.8393    8.7118 C.2     1  UNL1        0.3077
      2 C          12.0491   42.2270    7.3114 C.3     1  UNL1        0.0987
      3 C          13.1236   41.2313    6.8799 C.3     1  UNL1        0.0651
      4 C          14.1075   40.9543    8.0227 C.3     1  UNL1        0.1693
      5 C          13.3575   40.4561    9.2590 C.3     1  UNL1        0.0651
      6 C          12.2812   41.4524    9.6868 C.3     1  UNL1        0.0987
      7 O           9.2760   42.2054    7.7457 O.2     1  UNL1       -0.2522
      8 N           9.4080   41.4806    9.9704 N.am    1  UNL1       -0.2680
      9 N          11.4221   41.7732    8.5502 N.am    1  UNL1       -0.2637
     10 H          10.0267   41.1995   10.6827 H       1  UNL1        0.1564
     11 C           5.7167   41.8429    9.5788 C.ar    1  UNL1        0.1398
     12 C           5.2673   41.5241   10.8700 C.ar    1  UNL1        0.0370
     13 C           6.1828   41.1893   11.8703 C.ar    1  UNL1        0.0044
     14 C           7.5506   41.1715   11.5863 C.ar    1  UNL1        0.0149
     15 C           8.0124   41.4883   10.3001 C.ar    1  UNL1        0.0546
     16 C           7.0881   41.8222    9.3042 C.ar    1  UNL1        0.0516
     17 O           4.8272   42.1829    8.5561 O.3     1  UNL1       -0.4754
     18 C           4.6935   43.5102    8.0627 C.3     1  UNL1        0.2054
     19 C           6.0602   44.0907    7.7340 C.3     1  UNL1        0.0473
     20 C           7.9764   45.0850    8.9884 C.3     1  UNL1        0.0001
     21 C           6.4774   45.1310    8.7610 C.3     1  UNL1        0.0038
     22 O          14.8604   42.1227    8.3441 O.3     1  UNL1       -0.4790
     23 C          15.6588   42.8045    7.4190 C.ar    1  UNL1        0.1415
     24 C          15.1008   43.5826    6.3943 C.ar    1  UNL1        0.0576
     25 C          15.9427   44.2399    5.4948 C.ar    1  UNL1        0.1020
     26 C          17.8565   43.3721    6.5984 C.ar    1  UNL1        0.1020
     27 C          17.0482   42.6993    7.5175 C.ar    1  UNL1        0.0576
     28 N          17.2923   44.1226    5.6142 N.ar    1  UNL1       -0.2421
@<TRIPOS>BOND
     1    20    21    1
     2    21    19    1
     3    19    18    1
     4    18    17    1
     5    11    17    1
     6    12    13   ar
     7    14    15   ar
     8    15     8    1
     9     1     9   am
    10     2     9    1
    11     2     3    1
    12     3     4    1
    13     4     5    1
    14     4    22    1
    15     5     6    1
    16     6     9    1
    17    23    22    1
    18    24    25   ar
    19    26    28   ar
    20    27    23   ar
    21    16    11   ar
    22     8     1   am
    23    11    12   ar
    24    13    14   ar
    25    15    16   ar
    26     1     7    2
    27    23    24   ar
    28    25    28   ar
    29    26    27   ar
    30     8    10    1
@<TRIPOS>MOLECULE
MolPort-039-222-430 299785593 CSSS00160175489 MCULE-2234487371 PubChem-118781283 ZINC000299785593
 28 30 0 0 0
SMALL
GASTEIGER

@<TRIPOS>ATOM
      1 C          10.3254   40.9752    9.5745 C.2     1  UNL1        0.3077
      2 C          12.2648   39.9523   10.8015 C.3     1  UNL1        0.0987
      3 C          13.7546   40.0139   10.4711 C.3     1  UNL1        0.0651
      4 C          14.1094   39.0348    9.3458 C.3     1  UNL1        0.1693
      5 C          13.2570   39.3183    8.1080 C.3     1  UNL1        0.0651
      6 C          11.7674   39.2591    8.4417 C.3     1  UNL1        0.0987
      7 O          10.0385   41.6499   10.6006 O.2     1  UNL1       -0.2522
      8 N           9.5093   41.0578    8.3957 N.am    1  UNL1       -0.2680
      9 N          11.4795   40.1250    9.5820 N.am    1  UNL1       -0.2637
     10 H           9.7895   40.5096    7.6275 H       1  UNL1        0.1564
     11 C           6.2307   42.6762    9.1314 C.ar    1  UNL1        0.1398
     12 C           6.0001   43.3899    7.9447 C.ar    1  UNL1        0.0370
     13 C           6.9271   43.3372    6.9012 C.ar    1  UNL1        0.0044
     14 C           8.0879   42.5718    7.0377 C.ar    1  UNL1        0.0149
     15 C           8.3298   41.8539    8.2184 C.ar    1  UNL1        0.0546
     16 C           7.3958   41.9127    9.2585 C.ar    1  UNL1        0.0516
     17 O           5.3230   42.7070   10.1935 O.3     1  UNL1       -0.4754
     18 C           5.3494   41.7613   11.2556 C.3     1  UNL1        0.2054
     19 C           3.9540   41.2114   11.5066 C.3     1  UNL1        0.0473
     20 C           2.6970   41.1835    9.3495 C.3     1  UNL1        0.0001
     21 C           3.4841   40.3518   10.3442 C.3     1  UNL1        0.0038
     22 O          13.9277   37.6839    9.7669 O.3     1  UNL1       -0.4790
     23 C          14.7916   36.6422    9.4110 C.ar    1  UNL1        0.1415
     24 C          14.3178   35.3503    9.1403 C.ar    1  UNL1        0.0576
     25 C          15.2230   34.3455    8.7927 C.ar    1  UNL1        0.1020
     26 C          17.0360   35.8660    8.9802 C.ar    1  UNL1        0.1020
     27 C          16.1625   36.8978    9.3311 C.ar    1  UNL1        0.0576
     28 N          16.5527   34.6214    8.7201 N.ar    1  UNL1       -0.2421
@<TRIPOS>BOND
     1    20    21    1
     2    21    19    1
     3    19    18    1
     4    18    17    1
     5    11    17    1
     6    12    13   ar
     7    14    15   ar
     8    15     8    1
     9     1     9   am
    10     2     9    1
    11     2     3    1
    12     3     4    1
    13     4     5    1
    14     4    22    1
    15     5     6    1
    16     6     9    1
    17    23    22    1
    18    24    25   ar
    19    26    28   ar
    20    27    23   ar
    21    16    11   ar
    22     8     1   am
    23    11    12   ar
    24    13    14   ar
    25    15    16   ar
    26     1     7    2
    27    23    24   ar
    28    25    28   ar
    29    26    27   ar
    30     8    10    1
@<TRIPOS>MOLECULE
MolPort-039-222-430 299785593 CSSS00160175489 MCULE-2234487371 PubChem-118781283 ZINC000299785593
 28 30 0 0 0
SMALL
GASTEIGER

@<TRIPOS>ATOM
      1 C          11.9590   42.1246    7.1978 C.2     1  UNL1        0.3077
      2 C           9.6432   41.3131    7.7378 C.3     1  UNL1        0.0987
      3 C           8.9909   39.9721    7.4084 C.3     1  UNL1        0.0651
      4 C           8.5319   39.9282    5.9461 C.3     1  UNL1        0.1693
      5 C           9.7089   40.2140    5.0122 C.3     1  UNL1        0.0651
      6 C          10.3615   41.5545    5.3457 C.3     1  UNL1        0.0987
      7 O          12.1985   42.2460    8.4300 O.2     1  UNL1       -0.2522
      8 N          12.9459   42.4964    6.2231 N.am    1  UNL1       -0.2680
      9 N          10.6948   41.6042    6.7667 N.am    1  UNL1       -0.2637
     10 H          12.6989   42.3734    5.2781 H       1  UNL1        0.1564
     11 C          16.4575   42.7188    7.4598 C.ar    1  UNL1        0.1398
     12 C          16.8274   43.9991    7.0185 C.ar    1  UNL1        0.0370
     13 C          15.9176   44.7894    6.3124 C.ar    1  UNL1        0.0044
     14 C          14.6349   44.3053    6.0439 C.ar    1  UNL1        0.0149
     15 C          14.2530   43.0277    6.4796 C.ar    1  UNL1        0.0546
     16 C          15.1709   42.2429    7.1861 C.ar    1  UNL1        0.0516
     17 O          17.3434   41.9035    8.1693 O.3     1  UNL1       -0.4754
     18 C          16.9529   41.1592    9.3166 C.3     1  UNL1        0.2054
     19 C          15.5243   40.6615    9.1612 C.3     1  UNL1        0.0473
     20 C          13.6038   39.6651   10.4074 C.3     1  UNL1        0.0001
     21 C          15.1138   39.7912   10.3381 C.3     1  UNL1        0.0038
     22 O           7.4815   40.8644    5.7114 O.3     1  UNL1       -0.4790
     23 C           6.7389   41.4633    6.7351 C.ar    1  UNL1        0.1415
     24 C           6.0307   40.7016    7.6760 C.ar    1  UNL1        0.0576
     25 C           5.3023   41.3492    8.6759 C.ar    1  UNL1        0.1020
     26 C           5.9583   43.4677    7.8300 C.ar    1  UNL1        0.1020
     27 C           6.6985   42.8573    6.8149 C.ar    1  UNL1        0.0576
     28 N           5.2812   42.7078    8.7324 N.ar    1  UNL1       -0.2421
@<TRIPOS>BOND
     1    20    21    1
     2    21    19    1
     3    19    18    1
     4    18    17    1
     5    11    17    1
     6    12    13   ar
     7    14    15   ar
     8    15     8    1
     9     1     9   am
    10     2     9    1
    11     2     3    1
    12     3     4    1
    13     4     5    1
    14     4    22    1
    15     5     6    1
    16     6     9    1
    17    23    22    1
    18    24    25   ar
    19    26    28   ar
    20    27    23   ar
    21    16    11   ar
    22     8     1   am
    23    11    12   ar
    24    13    14   ar
    25    15    16   ar
    26     1     7    2
    27    23    24   ar
    28    25    28   ar
    29    26    27   ar
    30     8    10    1
@<TRIPOS>MOLECULE
MolPort-039-222-430 299785593 CSSS00160175489 MCULE-2234487371 PubChem-118781283 ZINC000299785593
 28 30 0 0 0
SMALL
GASTEIGER

@<TRIPOS>ATOM
      1 C          10.4352   42.0133    9.0523 C.2     1  UNL1        0.3077
      2 C          12.5732   42.4399    7.8031 C.3     1  UNL1        0.0987
      3 C          13.4946   41.4440    7.1021 C.3     1  UNL1        0.0651
      4 C          14.3781   40.7054    8.1144 C.3     1  UNL1        0.1693
      5 C          13.5120   40.0105    9.1663 C.3     1  UNL1        0.0651
      6 C          12.5891   41.0083    9.8638 C.3     1  UNL1        0.0987
      7 O           9.8161   42.7452    8.2328 O.2     1  UNL1       -0.2522
      8 N           9.7469   41.4187   10.1636 N.am    1  UNL1       -0.2680
      9 N          11.8354   41.7666    8.8689 N.am    1  UNL1       -0.2637
     10 H          10.2859   40.8548   10.7641 H       1  UNL1        0.1564
     11 C           6.1125   42.1615    9.7769 C.ar    1  UNL1        0.1398
     12 C           5.6283   41.8575   11.0591 C.ar    1  UNL1        0.0370
     13 C           6.5017   41.4071   12.0517 C.ar    1  UNL1        0.0044
     14 C           7.8617   41.2583   11.7690 C.ar    1  UNL1        0.0149
     15 C           8.3579   41.5590   10.4918 C.ar    1  UNL1        0.0546
     16 C           7.4758   42.0094    9.5035 C.ar    1  UNL1        0.0516
     17 O           5.2657   42.6151    8.7621 O.3     1  UNL1       -0.4754
     18 C           4.0479   43.3011    9.0256 C.3     1  UNL1        0.2054
     19 C           3.2378   42.5536   10.0734 C.3     1  UNL1        0.0473
     20 C           3.1153   40.0699   10.2976 C.3     1  UNL1        0.0001
     21 C           2.6476   41.2742    9.5028 C.3     1  UNL1        0.0038
     22 O          15.2914   41.6012    8.7458 O.3     1  UNL1       -0.4790
     23 C          16.2105   42.3879    8.0426 C.ar    1  UNL1        0.1415
     24 C          17.5945   42.2185    8.1933 C.ar    1  UNL1        0.0576
     25 C          18.4689   43.0326    7.4705 C.ar    1  UNL1        0.1020
     26 C          16.6401   44.1664    6.4685 C.ar    1  UNL1        0.1020
     27 C          15.7333   43.3720    7.1738 C.ar    1  UNL1        0.0576
     28 N          17.9781   43.9821    6.6295 N.ar    1  UNL1       -0.2421
@<TRIPOS>BOND
     1    20    21    1
     2    21    19    1
     3    19    18    1
     4    18    17    1
     5    11    17    1
     6    12    13   ar
     7    14    15   ar
     8    15     8    1
     9     1     9   am
    10     2     9    1
    11     2     3    1
    12     3     4    1
    13     4     5    1
    14     4    22    1
    15     5     6    1
    16     6     9    1
    17    23    22    1
    18    24    25   ar
    19    26    28   ar
    20    27    23   ar
    21    16    11   ar
    22     8     1   am
    23    11    12   ar
    24    13    14   ar
    25    15    16   ar
    26     1     7    2
    27    23    24   ar
    28    25    28   ar
    29    26    27   ar
    30     8    10    1
@<TRIPOS>MOLECULE
MolPort-039-222-430 299785593 CSSS00160175489 MCULE-2234487371 PubChem-118781283 ZINC000299785593
 28 30 0 0 0
SMALL
GASTEIGER

@<TRIPOS>ATOM
      1 C          10.4273   40.9389    8.1964 C.2     1  UNL1        0.3077
      2 C          12.7441   39.9848    8.3840 C.3     1  UNL1        0.0987
      3 C          13.2232   38.5589    8.1199 C.3     1  UNL1        0.0651
      4 C          12.8817   37.6372    9.2966 C.3     1  UNL1        0.1693
      5 C          11.3788   37.6716    9.5782 C.3     1  UNL1        0.0651
      6 C          10.9016   39.0992    9.8390 C.3     1  UNL1        0.0987
      7 O          10.8366   41.7473    7.3191 O.2     1  UNL1       -0.2522
      8 N           9.0619   40.9740    8.6400 N.am    1  UNL1       -0.2680
      9 N          11.3300   39.9725    8.7496 N.am    1  UNL1       -0.2637
     10 H           8.8045   40.3139    9.3235 H       1  UNL1        0.1564
     11 C           5.9420   43.0173    8.6631 C.ar    1  UNL1        0.1398
     12 C           5.9861   43.6071    7.3899 C.ar    1  UNL1        0.0370
     13 C           7.0460   43.3304    6.5233 C.ar    1  UNL1        0.0044
     14 C           8.0662   42.4639    6.9237 C.ar    1  UNL1        0.0149
     15 C           8.0335   41.8681    8.1933 C.ar    1  UNL1        0.0546
     16 C           6.9680   42.1511    9.0549 C.ar    1  UNL1        0.0516
     17 O           4.8954   43.2725    9.5533 O.3     1  UNL1       -0.4754
     18 C           3.5395   42.9634    9.2553 C.3     1  UNL1        0.2054
     19 C           2.9593   42.0513   10.3250 C.3     1  UNL1        0.0473
     20 C           4.2267   40.2746   11.5379 C.3     1  UNL1        0.0001
     21 C           3.5490   40.6531   10.2347 C.3     1  UNL1        0.0038
     22 O          13.6081   38.0104   10.4664 O.3     1  UNL1       -0.4790
     23 C          15.0056   38.0415   10.5293 C.ar    1  UNL1        0.1415
     24 C          15.7937   37.0480    9.9303 C.ar    1  UNL1        0.0576
     25 C          17.1847   37.1244   10.0256 C.ar    1  UNL1        0.1020
     26 C          17.0230   39.1286   11.2869 C.ar    1  UNL1        0.1020
     27 C          15.6288   39.0876   11.2138 C.ar    1  UNL1        0.0576
     28 N          17.7664   38.1546   10.6962 N.ar    1  UNL1       -0.2421
@<TRIPOS>BOND
     1    20    21    1
     2    21    19    1
     3    19    18    1
     4    18    17    1
     5    11    17    1
     6    12    13   ar
     7    14    15   ar
     8    15     8    1
     9     1     9   am
    10     2     9    1
    11     2     3    1
    12     3     4    1
    13     4     5    1
    14     4    22    1
    15     5     6    1
    16     6     9    1
    17    23    22    1
    18    24    25   ar
    19    26    28   ar
    20    27    23   ar
    21    16    11   ar
    22     8     1   am
    23    11    12   ar
    24    13    14   ar
    25    15    16   ar
    26     1     7    2
    27    23    24   ar
    28    25    28   ar
    29    26    27   ar
    30     8    10    1
@<TRIPOS>MOLECULE
MolPort-039-222-430 299785593 CSSS00160175489 MCULE-2234487371 PubChem-118781283 ZINC000299785593
 28 30 0 0 0
SMALL
GASTEIGER

@<TRIPOS>ATOM
      1 C          11.6699   41.3161    9.3685 C.2     1  UNL1        0.3077
      2 C           9.2304   41.7841    9.7473 C.3     1  UNL1        0.0987
      3 C           8.0113   41.0423    9.2034 C.3     1  UNL1        0.0651
      4 C           7.7336   41.4340    7.7473 C.3     1  UNL1        0.1693
      5 C           8.9688   41.1742    6.8836 C.3     1  UNL1        0.0651
      6 C          10.1876   41.9147    7.4314 C.3     1  UNL1        0.0987
      7 O          11.8223   41.1345   10.6071 O.2     1  UNL1       -0.2522
      8 N          12.7918   41.2337    8.4759 N.am    1  UNL1       -0.2680
      9 N          10.3652   41.5994    8.8463 N.am    1  UNL1       -0.2637
     10 H          12.6055   41.3812    7.5205 H       1  UNL1        0.1564
     11 C          16.5006   41.5802    8.6625 C.ar    1  UNL1        0.1398
     12 C          16.8417   40.4870    9.4745 C.ar    1  UNL1        0.0370
     13 C          15.8473   39.6352    9.9608 C.ar    1  UNL1        0.0044
     14 C          14.5085   39.8707    9.6386 C.ar    1  UNL1        0.0149
     15 C          14.1547   40.9595    8.8279 C.ar    1  UNL1        0.0546
     16 C          15.1573   41.8077    8.3454 C.ar    1  UNL1        0.0516
     17 O          17.4711   42.4505    8.1591 O.3     1  UNL1       -0.4754
     18 C          17.2307   43.8380    7.9590 C.3     1  UNL1        0.2054
     19 C          17.0720   44.1372    6.4764 C.3     1  UNL1        0.0473
     20 C          14.9190   44.0340    5.2162 C.3     1  UNL1        0.0001
     21 C          15.7530   44.8386    6.1949 C.3     1  UNL1        0.0038
     22 O           7.3476   42.8040    7.6507 O.3     1  UNL1       -0.4790
     23 C           6.0781   43.2744    8.0045 C.ar    1  UNL1        0.1415
     24 C           5.4951   44.3778    7.3645 C.ar    1  UNL1        0.0576
     25 C           4.2267   44.8090    7.7583 C.ar    1  UNL1        0.1020
     26 C           4.1120   43.0914    9.3924 C.ar    1  UNL1        0.1020
     27 C           5.3787   42.6298    9.0274 C.ar    1  UNL1        0.0576
     28 N           3.5662   44.1623    8.7558 N.ar    1  UNL1       -0.2421
@<TRIPOS>BOND
     1    20    21    1
     2    21    19    1
     3    19    18    1
     4    18    17    1
     5    11    17    1
     6    12    13   ar
     7    14    15   ar
     8    15     8    1
     9     1     9   am
    10     2     9    1
    11     2     3    1
    12     3     4    1
    13     4     5    1
    14     4    22    1
    15     5     6    1
    16     6     9    1
    17    23    22    1
    18    24    25   ar
    19    26    28   ar
    20    27    23   ar
    21    16    11   ar
    22     8     1   am
    23    11    12   ar
    24    13    14   ar
    25    15    16   ar
    26     1     7    2
    27    23    24   ar
    28    25    28   ar
    29    26    27   ar
    30     8    10    1
@<TRIPOS>MOLECULE
MolPort-039-222-430 299785593 CSSS00160175489 MCULE-2234487371 PubChem-118781283 ZINC000299785593
 28 30 0 0 0
SMALL
GASTEIGER

@<TRIPOS>ATOM
      1 C           9.5304   41.2729    9.1260 C.2     1  UNL1        0.3077
      2 C           7.0945   41.5315    8.5667 C.3     1  UNL1        0.0987
      3 C           6.4213   42.5372    7.6353 C.3     1  UNL1        0.0651
      4 C           6.2847   43.9067    8.3111 C.3     1  UNL1        0.1693
      5 C           7.6538   44.4101    8.7706 C.3     1  UNL1        0.0651
      6 C           8.3264   43.4010    9.6996 C.3     1  UNL1        0.0987
      7 O           9.5091   40.1027    8.6561 O.2     1  UNL1       -0.2522
      8 N          10.7303   41.8018    9.7115 N.am    1  UNL1       -0.2680
      9 N           8.3501   42.0843    9.0683 N.am    1  UNL1       -0.2637
     10 H          10.6826   42.7227   10.0562 H       1  UNL1        0.1564
     11 C          14.2310   40.7399    8.9854 C.ar    1  UNL1        0.1398
     12 C          14.4803   39.8572   10.0481 C.ar    1  UNL1        0.0370
     13 C          13.4926   39.6124   11.0050 C.ar    1  UNL1        0.0044
     14 C          12.2522   40.2472   10.9050 C.ar    1  UNL1        0.0149
     15 C          11.9907   41.1313    9.8476 C.ar    1  UNL1        0.0546
     16 C          12.9859   41.3708    8.8939 C.ar    1  UNL1        0.0516
     17 O          15.1971   41.0057    8.0113 O.3     1  UNL1       -0.4754
     18 C          15.8082   42.2814    7.8619 C.3     1  UNL1        0.2054
     19 C          17.1362   42.3197    8.6019 C.3     1  UNL1        0.0473
     20 C          17.4399   44.1469    6.9276 C.3     1  UNL1        0.0001
     21 C          17.9338   43.5613    8.2367 C.3     1  UNL1        0.0038
     22 O           5.3887   43.8431    9.4194 O.3     1  UNL1       -0.4790
     23 C           4.6928   42.6848    9.7832 C.ar    1  UNL1        0.1415
     24 C           5.1448   41.8443   10.8108 C.ar    1  UNL1        0.0576
     25 C           4.4145   40.6983   11.1321 C.ar    1  UNL1        0.1020
     26 C           2.8185   41.2013    9.4488 C.ar    1  UNL1        0.1020
     27 C           3.5209   42.3565    9.0977 C.ar    1  UNL1        0.0576
     28 N           3.2755   40.4026   10.4504 N.ar    1  UNL1       -0.2421
@<TRIPOS>BOND
     1    20    21    1
     2    21    19    1
     3    19    18    1
     4    18    17    1
     5    11    17    1
     6    12    13   ar
     7    14    15   ar
     8    15     8    1
     9     1     9   am
    10     2     9    1
    11     2     3    1
    12     3     4    1
    13     4     5    1
    14     4    22    1
    15     5     6    1
    16     6     9    1
    17    23    22    1
    18    24    25   ar
    19    26    28   ar
    20    27    23   ar
    21    16    11   ar
    22     8     1   am
    23    11    12   ar
    24    13    14   ar
    25    15    16   ar
    26     1     7    2
    27    23    24   ar
    28    25    28   ar
    29    26    27   ar
    30     8    10    1
@<TRIPOS>MOLECULE
MolPort-039-222-430 299785593 CSSS00160175489 MCULE-2234487371 PubChem-118781283 ZINC000299785593
 28 30 0 0 0
SMALL
GASTEIGER

@<TRIPOS>ATOM
      1 C          11.9604   41.1192    9.7877 C.2     1  UNL1        0.3077
      2 C           9.9789   42.3301    8.8283 C.3     1  UNL1        0.0987
      3 C           9.0918   43.3910    9.4762 C.3     1  UNL1        0.0651
      4 C           8.0807   42.7515   10.4352 C.3     1  UNL1        0.1693
      5 C           8.8065   41.9179   11.4923 C.3     1  UNL1        0.0651
      6 C           9.6956   40.8595   10.8416 C.3     1  UNL1        0.0987
      7 O          12.6890   41.6008    8.8780 O.2     1  UNL1       -0.2522
      8 N          12.5078   40.2112   10.7563 N.am    1  UNL1       -0.2680
      9 N          10.5767   41.4867    9.8602 N.am    1  UNL1       -0.2637
     10 H          11.8879   39.8743   11.4429 H       1  UNL1        0.1564
     11 C          16.1357   39.8423    9.9737 C.ar    1  UNL1        0.1398
     12 C          16.5266   38.8767   10.9147 C.ar    1  UNL1        0.0370
     13 C          15.5926   38.3471   11.8080 C.ar    1  UNL1        0.0044
     14 C          14.2646   38.7789   11.7658 C.ar    1  UNL1        0.0149
     15 C          13.8613   39.7431   10.8301 C.ar    1  UNL1        0.0546
     16 C          14.8038   40.2682    9.9392 C.ar    1  UNL1        0.0516
     17 O          17.0450   40.3913    9.0655 O.3     1  UNL1       -0.4754
     18 C          17.3507   41.7798    9.0273 C.3     1  UNL1        0.2054
     19 C          16.5975   42.4544    7.8914 C.3     1  UNL1        0.0473
     20 C          16.8478   44.2121    6.1358 C.3     1  UNL1        0.0001
     21 C          17.2084   43.8044    7.5516 C.3     1  UNL1        0.0038
     22 O           7.1468   41.9387    9.7264 O.3     1  UNL1       -0.4790
     23 C           7.0487   41.9146    8.3307 C.ar    1  UNL1        0.1415
     24 C           7.3063   40.7502    7.5927 C.ar    1  UNL1        0.0576
     25 C           7.1974   40.7810    6.2009 C.ar    1  UNL1        0.1020
     26 C           6.5932   43.0755    6.2643 C.ar    1  UNL1        0.1020
     27 C           6.6914   43.0852    7.6575 C.ar    1  UNL1        0.0576
     28 N           6.8458   41.9334    5.5701 N.ar    1  UNL1       -0.2421
@<TRIPOS>BOND
     1    20    21    1
     2    21    19    1
     3    19    18    1
     4    18    17    1
     5    11    17    1
     6    12    13   ar
     7    14    15   ar
     8    15     8    1
     9     1     9   am
    10     2     9    1
    11     2     3    1
    12     3     4    1
    13     4     5    1
    14     4    22    1
    15     5     6    1
    16     6     9    1
    17    23    22    1
    18    24    25   ar
    19    26    28   ar
    20    27    23   ar
    21    16    11   ar
    22     8     1   am
    23    11    12   ar
    24    13    14   ar
    25    15    16   ar
    26     1     7    2
    27    23    24   ar
    28    25    28   ar
    29    26    27   ar
    30     8    10    1
