@<TRIPOS>MOLECULE
MolPort-020-295-094 MCULE-2560501570 PubChem-110267191
 30 33 0 0 0
SMALL
GASTEIGER

@<TRIPOS>ATOM
      1 C           2.5828   41.8835   12.0194 C.ar    1  UNL1        0.2214
      2 C           3.7944   39.8919   12.4319 C.ar    1  UNL1        0.1031
      3 C           4.8049   40.3150   11.5715 C.ar    1  UNL1        0.0356
      4 C           4.6655   41.5550   10.9388 C.ar    1  UNL1        0.0647
      5 N           2.7071   40.6784   12.6399 N.ar    1  UNL1       -0.2120
      6 N           3.5606   42.3098   11.1769 N.ar    1  UNL1       -0.2179
      7 C           5.7136   42.0695   10.0044 C.3     1  UNL1        0.0603
      8 C           6.8649   42.7235   10.7719 C.3     1  UNL1        0.0094
      9 C           7.9334   43.2216    9.8019 C.3     1  UNL1        0.0220
     10 C           7.3224   44.2051    8.8080 C.3     1  UNL1        0.0937
     11 C           5.1155   43.0492    8.9944 C.3     1  UNL1        0.0996
     12 C           6.1534   43.3411    6.7269 C.2     1  UNL1        0.2490
     13 N           6.1763   43.5856    8.1455 N.am    1  UNL1       -0.2757
     14 O           5.4314   42.4082    6.2782 O.2     1  UNL1       -0.2699
     15 C           6.9418   44.1527    5.7695 C.ar    1  UNL1        0.0536
     16 C           7.9457   43.5421    5.0017 C.ar    1  UNL1        0.0054
     17 C           8.6820   44.2850    4.0744 C.ar    1  UNL1        0.0115
     18 C           8.4161   45.6452    3.9007 C.ar    1  UNL1        0.0577
     19 C           7.4107   46.2611    4.6499 C.ar    1  UNL1        0.0115
     20 C           6.6754   45.5169    5.5767 C.ar    1  UNL1        0.0054
     21 CL          9.3384   46.5764    2.7410 Cl      1  UNL1       -0.0822
     22 N           1.4371   42.7155   12.2375 N.pl3   1  UNL1       -0.2680
     23 H           1.2111   43.3560   11.5248 H       1  UNL1        0.1565
     24 C          -1.9212   42.6864   16.8373 C.3     1  UNL1        0.0327
     25 C          -1.0375   42.6972   15.6427 C.ar    1  UNL1       -0.0026
     26 C          -1.5348   42.3188   14.3946 C.ar    1  UNL1        0.0960
     27 C           0.5881   42.7064   13.3915 C.ar    1  UNL1        0.1343
     28 C           1.1173   43.0914   14.6265 C.ar    1  UNL1        0.0342
     29 C           0.2977   43.0856   15.7566 C.ar    1  UNL1        0.0001
     30 N          -0.7196   42.3312   13.3056 N.ar    1  UNL1       -0.2293
@<TRIPOS>BOND
     1    24    25    1
     2    26    30   ar
     3    27    28   ar
     4    27    22    1
     5    29    25   ar
     6     1     6   ar
     7     2     5   ar
     8     3     4   ar
     9     7     4    1
    10     7     8    1
    11     8     9    1
    12     9    10    1
    13    10    13    1
    14    11    13    1
    15    11     7    1
    16    12    15    1
    17    16    17   ar
    18    18    19   ar
    19    18    21    1
    20    20    15   ar
    21    22     1    1
    22    13    12   am
    23    25    26   ar
    24    27    30   ar
    25    28    29   ar
    26     1     5   ar
    27     2     3   ar
    28     4     6   ar
    29    12    14    2
    30    15    16   ar
    31    17    18   ar
    32    19    20   ar
    33    22    23    1
@<TRIPOS>MOLECULE
MolPort-020-295-094 MCULE-2560501570 PubChem-110267191
 30 33 0 0 0
SMALL
GASTEIGER

@<TRIPOS>ATOM
      1 C          15.6386   42.4572    7.4800 C.ar    1  UNL1        0.2214
      2 C          14.8511   43.9064    5.7816 C.ar    1  UNL1        0.1031
      3 C          13.5620   43.4004    5.9318 C.ar    1  UNL1        0.0356
      4 C          13.3456   42.4011    6.8868 C.ar    1  UNL1        0.0647
      5 N          15.8614   43.4291    6.5534 N.ar    1  UNL1       -0.2120
      6 N          14.3860   41.9535    7.6380 N.ar    1  UNL1       -0.2179
      7 C          11.9861   41.8156    7.1001 C.3     1  UNL1        0.0603
      8 C          11.2937   41.5266    5.7662 C.3     1  UNL1        0.0094
      9 C           9.9180   40.9095    6.0057 C.3     1  UNL1        0.0220
     10 C           9.0666   41.8417    6.8628 C.3     1  UNL1        0.0937
     11 C          11.1229   42.7331    7.9665 C.3     1  UNL1        0.0996
     12 C           9.2840   41.7888    9.3914 C.2     1  UNL1        0.2490
     13 N           9.7827   42.1668    8.0948 N.am    1  UNL1       -0.2757
     14 O          10.1018   41.6314   10.3397 O.2     1  UNL1       -0.2699
     15 C           7.8400   41.5859    9.6574 C.ar    1  UNL1        0.0536
     16 C           6.9615   41.3544    8.5874 C.ar    1  UNL1        0.0054
     17 C           5.6008   41.1343    8.8199 C.ar    1  UNL1        0.0115
     18 C           5.1066   41.1365   10.1263 C.ar    1  UNL1        0.0577
     19 C           5.9735   41.3529   11.2002 C.ar    1  UNL1        0.0115
     20 C           7.3338   41.5728   10.9660 C.ar    1  UNL1        0.0054
     21 CL          3.4030   40.8625   10.4183 Cl      1  UNL1       -0.0822
     22 N          16.7025   41.9523    8.2958 N.pl3   1  UNL1       -0.2680
     23 H          17.5616   42.4311    8.2520 H       1  UNL1        0.1565
     24 C          16.4250   37.4462   11.7679 C.3     1  UNL1        0.0327
     25 C          16.4876   38.6223   10.8618 C.ar    1  UNL1       -0.0026
     26 C          17.7205   39.1211   10.4384 C.ar    1  UNL1        0.0960
     27 C          16.6382   40.8185    9.1693 C.ar    1  UNL1        0.1343
     28 C          15.3875   40.3439    9.5744 C.ar    1  UNL1        0.0342
     29 C          15.3148   39.2396   10.4255 C.ar    1  UNL1        0.0001
     30 N          17.7697   40.1982    9.6090 N.ar    1  UNL1       -0.2293
@<TRIPOS>BOND
     1    24    25    1
     2    26    30   ar
     3    27    28   ar
     4    27    22    1
     5    29    25   ar
     6     1     6   ar
     7     2     5   ar
     8     3     4   ar
     9     7     4    1
    10     7     8    1
    11     8     9    1
    12     9    10    1
    13    10    13    1
    14    11    13    1
    15    11     7    1
    16    12    15    1
    17    16    17   ar
    18    18    19   ar
    19    18    21    1
    20    20    15   ar
    21    22     1    1
    22    13    12   am
    23    25    26   ar
    24    27    30   ar
    25    28    29   ar
    26     1     5   ar
    27     2     3   ar
    28     4     6   ar
    29    12    14    2
    30    15    16   ar
    31    17    18   ar
    32    19    20   ar
    33    22    23    1
@<TRIPOS>MOLECULE
MolPort-020-295-094 MCULE-2560501570 PubChem-110267191
 30 33 0 0 0
SMALL
GASTEIGER

@<TRIPOS>ATOM
      1 C           5.3803   40.7310   11.5115 C.ar    1  UNL1        0.2214
      2 C           7.5193   40.2662   12.4132 C.ar    1  UNL1        0.1031
      3 C           8.1055   41.1449   11.5052 C.ar    1  UNL1        0.0356
      4 C           7.2787   41.8125   10.5953 C.ar    1  UNL1        0.0647
      5 N           6.1749   40.0751   12.4010 N.ar    1  UNL1       -0.2120
      6 N           5.9379   41.5915   10.6192 N.ar    1  UNL1       -0.2179
      7 C           7.8430   42.7702    9.5949 C.3     1  UNL1        0.0603
      8 C           8.2075   44.1037   10.2514 C.3     1  UNL1        0.0094
      9 C           8.8017   45.0582    9.2187 C.3     1  UNL1        0.0220
     10 C           7.8152   45.2739    8.0747 C.3     1  UNL1        0.0937
     11 C           6.8705   42.9895    8.4356 C.3     1  UNL1        0.0996
     12 C           7.7178   43.6144    6.1563 C.2     1  UNL1        0.2490
     13 N           7.4209   43.9821    7.5162 N.am    1  UNL1       -0.2757
     14 O           7.8226   42.3915    5.8618 O.2     1  UNL1       -0.2699
     15 C           7.8966   44.6214    5.0835 C.ar    1  UNL1        0.0536
     16 C           8.7620   44.3502    4.0122 C.ar    1  UNL1        0.0054
     17 C           8.9237   45.2758    2.9773 C.ar    1  UNL1        0.0115
     18 C           8.2153   46.4794    3.0003 C.ar    1  UNL1        0.0577
     19 C           7.3414   46.7549    4.0547 C.ar    1  UNL1        0.0115
     20 C           7.1808   45.8283    5.0887 C.ar    1  UNL1        0.0054
     21 CL          8.4182   47.6395    1.7058 Cl      1  UNL1       -0.0822
     22 N           3.9616   40.5317   11.4967 N.pl3   1  UNL1       -0.2680
     23 H           3.6256   39.7690   10.9726 H       1  UNL1        0.1565
     24 C           0.0767   43.7357   14.1573 C.3     1  UNL1        0.0327
     25 C           1.0906   42.9062   13.4557 C.ar    1  UNL1       -0.0026
     26 C           1.5386   41.7119   14.0222 C.ar    1  UNL1        0.0960
     27 C           2.9842   41.3341   12.1701 C.ar    1  UNL1        0.1343
     28 C           2.5567   42.5245   11.5753 C.ar    1  UNL1        0.0342
     29 C           1.6046   43.3129   12.2240 C.ar    1  UNL1        0.0001
     30 N           2.4670   40.9580   13.3740 N.ar    1  UNL1       -0.2293
@<TRIPOS>BOND
     1    24    25    1
     2    26    30   ar
     3    27    28   ar
     4    27    22    1
     5    29    25   ar
     6     1     6   ar
     7     2     5   ar
     8     3     4   ar
     9     7     4    1
    10     7     8    1
    11     8     9    1
    12     9    10    1
    13    10    13    1
    14    11    13    1
    15    11     7    1
    16    12    15    1
    17    16    17   ar
    18    18    19   ar
    19    18    21    1
    20    20    15   ar
    21    22     1    1
    22    13    12   am
    23    25    26   ar
    24    27    30   ar
    25    28    29   ar
    26     1     5   ar
    27     2     3   ar
    28     4     6   ar
    29    12    14    2
    30    15    16   ar
    31    17    18   ar
    32    19    20   ar
    33    22    23    1
@<TRIPOS>MOLECULE
MolPort-020-295-094 MCULE-2560501570 PubChem-110267191
 30 33 0 0 0
SMALL
GASTEIGER

@<TRIPOS>ATOM
      1 C           8.1773   40.9934    9.0875 C.ar    1  UNL1        0.2214
      2 C           8.1403   40.8770    6.7232 C.ar    1  UNL1        0.1031
      3 C           9.4239   40.3359    6.7185 C.ar    1  UNL1        0.0356
      4 C          10.0666   40.1343    7.9448 C.ar    1  UNL1        0.0647
      5 N           7.5425   41.1948    7.9004 N.ar    1  UNL1       -0.2120
      6 N           9.4302   40.4662    9.0989 N.ar    1  UNL1       -0.2179
      7 C          11.4441   39.5560    8.0109 C.3     1  UNL1        0.0603
      8 C          11.4686   38.1240    7.4714 C.3     1  UNL1        0.0094
      9 C          12.8863   37.5606    7.5271 C.3     1  UNL1        0.0220
     10 C          13.4129   37.6050    8.9586 C.3     1  UNL1        0.0937
     11 C          11.9910   39.6025    9.4380 C.3     1  UNL1        0.0996
     12 C          14.4631   39.7345    9.8565 C.2     1  UNL1        0.2490
     13 N          13.3052   38.9664    9.4795 N.am    1  UNL1       -0.2757
     14 O          14.4004   40.9945    9.8194 O.2     1  UNL1       -0.2699
     15 C          15.7274   39.0986   10.2971 C.ar    1  UNL1        0.0536
     16 C          16.1121   37.8640    9.7513 C.ar    1  UNL1        0.0054
     17 C          17.3138   37.2612   10.1342 C.ar    1  UNL1        0.0115
     18 C          18.1463   37.8914   11.0620 C.ar    1  UNL1        0.0577
     19 C          17.7802   39.1264   11.6025 C.ar    1  UNL1        0.0115
     20 C          16.5784   39.7279   11.2185 C.ar    1  UNL1        0.0054
     21 CL         19.6502   37.1367   11.5431 Cl      1  UNL1       -0.0822
     22 N           7.5488   41.3272   10.3309 N.pl3   1  UNL1       -0.2680
     23 H           8.1343   41.4007   11.1190 H       1  UNL1        0.1565
     24 C           1.9928   42.2536   11.1731 C.3     1  UNL1        0.0327
     25 C           3.4420   42.0042   10.9595 C.ar    1  UNL1       -0.0026
     26 C           4.1842   42.8363   10.1199 C.ar    1  UNL1        0.0960
     27 C           6.1514   41.5646   10.5394 C.ar    1  UNL1        0.1343
     28 C           5.4372   40.7126   11.3866 C.ar    1  UNL1        0.0342
     29 C           4.0751   40.9360   11.5958 C.ar    1  UNL1        0.0001
     30 N           5.5105   42.6015    9.9292 N.ar    1  UNL1       -0.2293
@<TRIPOS>BOND
     1    24    25    1
     2    26    30   ar
     3    27    28   ar
     4    27    22    1
     5    29    25   ar
     6     1     6   ar
     7     2     5   ar
     8     3     4   ar
     9     7     4    1
    10     7     8    1
    11     8     9    1
    12     9    10    1
    13    10    13    1
    14    11    13    1
    15    11     7    1
    16    12    15    1
    17    16    17   ar
    18    18    19   ar
    19    18    21    1
    20    20    15   ar
    21    22     1    1
    22    13    12   am
    23    25    26   ar
    24    27    30   ar
    25    28    29   ar
    26     1     5   ar
    27     2     3   ar
    28     4     6   ar
    29    12    14    2
    30    15    16   ar
    31    17    18   ar
    32    19    20   ar
    33    22    23    1
@<TRIPOS>MOLECULE
MolPort-020-295-094 MCULE-2560501570 PubChem-110267191
 30 33 0 0 0
SMALL
GASTEIGER

@<TRIPOS>ATOM
      1 C          15.8896   39.9709   10.0852 C.ar    1  UNL1        0.2214
      2 C          15.5143   38.5647   11.9524 C.ar    1  UNL1        0.1031
      3 C          14.1426   38.5925   11.7120 C.ar    1  UNL1        0.0356
      4 C          13.6715   39.3373   10.6253 C.ar    1  UNL1        0.0647
      5 N          16.3594   39.2503   11.1400 N.ar    1  UNL1       -0.2120
      6 N          14.5534   40.0076    9.8379 N.ar    1  UNL1       -0.2179
      7 C          12.2113   39.4083   10.3103 C.3     1  UNL1        0.0603
      8 C          11.9086   38.7777    8.9491 C.3     1  UNL1        0.0094
      9 C          10.4115   38.8405    8.6569 C.3     1  UNL1        0.0220
     10 C           9.9289   40.2876    8.6985 C.3     1  UNL1        0.0937
     11 C          11.7090   40.8516   10.3581 C.3     1  UNL1        0.0996
     12 C           9.3137   41.3542   10.9183 C.2     1  UNL1        0.2490
     13 N          10.2997   40.8923    9.9764 N.am    1  UNL1       -0.2757
     14 O           9.6112   41.3972   12.1441 O.2     1  UNL1       -0.2699
     15 C           7.9607   41.7915   10.4997 C.ar    1  UNL1        0.0536
     16 C           7.8141   42.6201    9.3762 C.ar    1  UNL1        0.0054
     17 C           6.5448   43.0213    8.9500 C.ar    1  UNL1        0.0115
     18 C           5.4086   42.5916    9.6395 C.ar    1  UNL1        0.0577
     19 C           5.5412   41.7563   10.7513 C.ar    1  UNL1        0.0115
     20 C           6.8111   41.3559   11.1763 C.ar    1  UNL1        0.0054
     21 CL          3.8192   43.0947    9.1073 Cl      1  UNL1       -0.0822
     22 N          16.7789   40.6946    9.2262 N.pl3   1  UNL1       -0.2680
     23 H          17.7132   40.3860    9.1925 H       1  UNL1        0.1565
     24 C          15.4558   45.1927    5.9930 C.3     1  UNL1        0.0327
     25 C          15.8095   44.0234    6.8390 C.ar    1  UNL1       -0.0026
     26 C          14.9418   42.9343    6.9346 C.ar    1  UNL1        0.0960
     27 C          16.4413   41.8237    8.4115 C.ar    1  UNL1        0.1343
     28 C          17.3325   42.8979    8.3373 C.ar    1  UNL1        0.0342
     29 C          17.0121   44.0025    7.5460 C.ar    1  UNL1        0.0001
     30 N          15.2725   41.8675    7.7113 N.ar    1  UNL1       -0.2293
@<TRIPOS>BOND
     1    24    25    1
     2    26    30   ar
     3    27    28   ar
     4    27    22    1
     5    29    25   ar
     6     1     6   ar
     7     2     5   ar
     8     3     4   ar
     9     7     4    1
    10     7     8    1
    11     8     9    1
    12     9    10    1
    13    10    13    1
    14    11    13    1
    15    11     7    1
    16    12    15    1
    17    16    17   ar
    18    18    19   ar
    19    18    21    1
    20    20    15   ar
    21    22     1    1
    22    13    12   am
    23    25    26   ar
    24    27    30   ar
    25    28    29   ar
    26     1     5   ar
    27     2     3   ar
    28     4     6   ar
    29    12    14    2
    30    15    16   ar
    31    17    18   ar
    32    19    20   ar
    33    22    23    1
@<TRIPOS>MOLECULE
MolPort-020-295-094 MCULE-2560501570 PubChem-110267191
 30 33 0 0 0
SMALL
GASTEIGER

@<TRIPOS>ATOM
      1 C           6.8899   41.1929    7.3793 C.ar    1  UNL1        0.2214
      2 C           6.9660   39.1549    6.1770 C.ar    1  UNL1        0.1031
      3 C           8.3576   39.1584    6.2369 C.ar    1  UNL1        0.0356
      4 C           8.9938   40.2195    6.8901 C.ar    1  UNL1        0.0647
      5 N           6.2600   40.1661    6.7457 N.ar    1  UNL1       -0.2120
      6 N           8.2475   41.2101    7.4458 N.ar    1  UNL1       -0.2179
      7 C          10.4845   40.2839    6.9917 C.3     1  UNL1        0.0603
      8 C          11.0106   39.2922    8.0319 C.3     1  UNL1        0.0094
      9 C          12.5341   39.3580    8.1041 C.3     1  UNL1        0.0220
     10 C          12.9828   40.7775    8.4391 C.3     1  UNL1        0.0937
     11 C          10.9517   41.7029    7.3168 C.3     1  UNL1        0.0996
     12 C          13.2187   42.5010    6.5903 C.2     1  UNL1        0.2490
     13 N          12.4032   41.7152    7.4793 N.am    1  UNL1       -0.2757
     14 O          12.7279   42.8931    5.4956 O.2     1  UNL1       -0.2699
     15 C          14.6148   42.8757    6.9179 C.ar    1  UNL1        0.0536
     16 C          15.1480   44.0751    6.4205 C.ar    1  UNL1        0.0054
     17 C          16.4535   44.4589    6.7400 C.ar    1  UNL1        0.0115
     18 C          17.2365   43.6498    7.5666 C.ar    1  UNL1        0.0577
     19 C          16.7124   42.4603    8.0781 C.ar    1  UNL1        0.0115
     20 C          15.4067   42.0779    7.7577 C.ar    1  UNL1        0.0054
     21 CL         18.8716   44.1289    7.9660 Cl      1  UNL1       -0.0822
     22 N           6.1477   42.2606    7.9805 N.pl3   1  UNL1       -0.2680
     23 H           6.2688   43.1582    7.5946 H       1  UNL1        0.1565
     24 C           2.5800   41.8096   12.3969 C.3     1  UNL1        0.0327
     25 C           3.5178   41.9228   11.2499 C.ar    1  UNL1       -0.0026
     26 C           3.1096   42.5337   10.0632 C.ar    1  UNL1        0.0960
     27 C           5.2463   42.1497    9.0886 C.ar    1  UNL1        0.1343
     28 C           5.6868   41.5325   10.2627 C.ar    1  UNL1        0.0342
     29 C           4.8155   41.4197   11.3477 C.ar    1  UNL1        0.0001
     30 N           3.9738   42.6335    9.0174 N.ar    1  UNL1       -0.2293
@<TRIPOS>BOND
     1    24    25    1
     2    26    30   ar
     3    27    28   ar
     4    27    22    1
     5    29    25   ar
     6     1     6   ar
     7     2     5   ar
     8     3     4   ar
     9     7     4    1
    10     7     8    1
    11     8     9    1
    12     9    10    1
    13    10    13    1
    14    11    13    1
    15    11     7    1
    16    12    15    1
    17    16    17   ar
    18    18    19   ar
    19    18    21    1
    20    20    15   ar
    21    22     1    1
    22    13    12   am
    23    25    26   ar
    24    27    30   ar
    25    28    29   ar
    26     1     5   ar
    27     2     3   ar
    28     4     6   ar
    29    12    14    2
    30    15    16   ar
    31    17    18   ar
    32    19    20   ar
    33    22    23    1
@<TRIPOS>MOLECULE
MolPort-020-295-094 MCULE-2560501570 PubChem-110267191
 30 33 0 0 0
SMALL
GASTEIGER

@<TRIPOS>ATOM
      1 C           8.3549   42.1936   11.0358 C.ar    1  UNL1        0.2214
      2 C           8.9586   41.3929   13.1804 C.ar    1  UNL1        0.1031
      3 C          10.1784   40.9423   12.6813 C.ar    1  UNL1        0.0356
      4 C          10.4567   41.1389   11.3243 C.ar    1  UNL1        0.0647
      5 N           8.0728   42.0070   12.3543 N.ar    1  UNL1       -0.2120
      6 N           9.5412   41.7591   10.5342 N.ar    1  UNL1       -0.2179
      7 C          11.7478   40.6808   10.7245 C.3     1  UNL1        0.0603
      8 C          12.0738   41.4642    9.4508 C.3     1  UNL1        0.0094
      9 C          13.4049   40.9971    8.8672 C.3     1  UNL1        0.0220
     10 C          13.3551   39.4993    8.5795 C.3     1  UNL1        0.0937
     11 C          11.7184   39.1790   10.4395 C.3     1  UNL1        0.0996
     12 C          13.8399   37.8363   10.4351 C.2     1  UNL1        0.2490
     13 N          12.9641   38.7795    9.7900 N.am    1  UNL1       -0.2757
     14 O          13.7058   37.6234   11.6719 O.2     1  UNL1       -0.2699
     15 C          14.8907   37.0964    9.6966 C.ar    1  UNL1        0.0536
     16 C          14.5253   36.1856    8.6931 C.ar    1  UNL1        0.0054
     17 C          15.5022   35.4980    7.9673 C.ar    1  UNL1        0.0115
     18 C          16.8553   35.7204    8.2335 C.ar    1  UNL1        0.0577
     19 C          17.2314   36.6341    9.2210 C.ar    1  UNL1        0.0115
     20 C          16.2533   37.3208    9.9458 C.ar    1  UNL1        0.0054
     21 CL         18.0790   34.8590    7.3264 Cl      1  UNL1       -0.0822
     22 N           7.4225   42.8415   10.1622 N.pl3   1  UNL1       -0.2680
     23 H           7.7391   43.6474    9.6936 H       1  UNL1        0.1565
     24 C           2.0675   41.1909    9.1444 C.3     1  UNL1        0.0327
     25 C           3.4665   41.6129    9.4141 C.ar    1  UNL1       -0.0026
     26 C           3.9014   42.8875    9.0476 C.ar    1  UNL1        0.0960
     27 C           6.0744   42.4312    9.9039 C.ar    1  UNL1        0.1343
     28 C           5.6708   41.1481   10.2838 C.ar    1  UNL1        0.0342
     29 C           4.3591   40.7393   10.0361 C.ar    1  UNL1        0.0001
     30 N           5.1838   43.2665    9.2977 N.ar    1  UNL1       -0.2293
@<TRIPOS>BOND
     1    24    25    1
     2    26    30   ar
     3    27    28   ar
     4    27    22    1
     5    29    25   ar
     6     1     6   ar
     7     2     5   ar
     8     3     4   ar
     9     7     4    1
    10     7     8    1
    11     8     9    1
    12     9    10    1
    13    10    13    1
    14    11    13    1
    15    11     7    1
    16    12    15    1
    17    16    17   ar
    18    18    19   ar
    19    18    21    1
    20    20    15   ar
    21    22     1    1
    22    13    12   am
    23    25    26   ar
    24    27    30   ar
    25    28    29   ar
    26     1     5   ar
    27     2     3   ar
    28     4     6   ar
    29    12    14    2
    30    15    16   ar
    31    17    18   ar
    32    19    20   ar
    33    22    23    1
@<TRIPOS>MOLECULE
MolPort-020-295-094 MCULE-2560501570 PubChem-110267191
 30 33 0 0 0
SMALL
GASTEIGER

@<TRIPOS>ATOM
      1 C           8.1484   41.8372    9.5306 C.ar    1  UNL1        0.2214
      2 C           9.4659   43.7251   10.0827 C.ar    1  UNL1        0.1031
      3 C          10.6134   42.9355   10.0931 C.ar    1  UNL1        0.0356
      4 C          10.4858   41.5709    9.8119 C.ar    1  UNL1        0.0647
      5 N           8.2602   43.1660    9.8035 N.ar    1  UNL1       -0.2120
      6 N           9.2593   41.0538    9.5371 N.ar    1  UNL1       -0.2179
      7 C          11.6773   40.6672    9.8051 C.3     1  UNL1        0.0603
      8 C          12.9164   41.3909    9.2730 C.3     1  UNL1        0.0094
      9 C          14.1252   40.4587    9.2951 C.3     1  UNL1        0.0220
     10 C          13.8379   39.2072    8.4707 C.3     1  UNL1        0.0937
     11 C          11.4023   39.4024    8.9912 C.3     1  UNL1        0.0996
     12 C          12.5957   37.2573    9.5190 C.2     1  UNL1        0.2490
     13 N          12.6072   38.5780    8.9458 N.am    1  UNL1       -0.2757
     14 O          11.6833   36.9527   10.3361 O.2     1  UNL1       -0.2699
     15 C          13.6136   36.2356    9.1771 C.ar    1  UNL1        0.0536
     16 C          13.4030   34.8958    9.5389 C.ar    1  UNL1        0.0054
     17 C          14.3385   33.9133    9.2021 C.ar    1  UNL1        0.0115
     18 C          15.4910   34.2604    8.4935 C.ar    1  UNL1        0.0577
     19 C          15.7053   35.5884    8.1167 C.ar    1  UNL1        0.0115
     20 C          14.7689   36.5696    8.4542 C.ar    1  UNL1        0.0054
     21 CL         16.6635   33.0312    8.0727 Cl      1  UNL1       -0.0822
     22 N           6.8779   41.2448    9.2352 N.pl3   1  UNL1       -0.2680
     23 H           6.8483   40.6081    8.4850 H       1  UNL1        0.1565
     24 C           1.9757   42.2289   11.9624 C.3     1  UNL1        0.0327
     25 C           3.2522   41.9787   11.2439 C.ar    1  UNL1       -0.0026
     26 C           4.1715   41.0538   11.7415 C.ar    1  UNL1        0.0960
     27 C           5.6462   41.4887    9.9251 C.ar    1  UNL1        0.1343
     28 C           4.7471   42.4211    9.3998 C.ar    1  UNL1        0.0342
     29 C           3.5443   42.6655   10.0651 C.ar    1  UNL1        0.0001
     30 N           5.3380   40.8303   11.0783 N.ar    1  UNL1       -0.2293
@<TRIPOS>BOND
     1    24    25    1
     2    26    30   ar
     3    27    28   ar
     4    27    22    1
     5    29    25   ar
     6     1     6   ar
     7     2     5   ar
     8     3     4   ar
     9     7     4    1
    10     7     8    1
    11     8     9    1
    12     9    10    1
    13    10    13    1
    14    11    13    1
    15    11     7    1
    16    12    15    1
    17    16    17   ar
    18    18    19   ar
    19    18    21    1
    20    20    15   ar
    21    22     1    1
    22    13    12   am
    23    25    26   ar
    24    27    30   ar
    25    28    29   ar
    26     1     5   ar
    27     2     3   ar
    28     4     6   ar
    29    12    14    2
    30    15    16   ar
    31    17    18   ar
    32    19    20   ar
    33    22    23    1
@<TRIPOS>MOLECULE
MolPort-020-295-094 MCULE-2560501570 PubChem-110267191
 30 33 0 0 0
SMALL
GASTEIGER

@<TRIPOS>ATOM
      1 C           9.5437   40.1665   10.5695 C.ar    1  UNL1        0.2214
      2 C          10.0512   37.8559   10.4769 C.ar    1  UNL1        0.1031
      3 C          11.2820   38.1382    9.8890 C.ar    1  UNL1        0.0356
      4 C          11.6156   39.4760    9.6511 C.ar    1  UNL1        0.0647
      5 N           9.2079   38.8686   10.8050 N.ar    1  UNL1       -0.2120
      6 N          10.7414   40.4576    9.9964 N.ar    1  UNL1       -0.2179
      7 C          12.9213   39.8486    9.0244 C.3     1  UNL1        0.0603
      8 C          14.0929   39.1876    9.7544 C.3     1  UNL1        0.0094
      9 C          15.4133   39.5625    9.0863 C.3     1  UNL1        0.0220
     10 C          15.5792   41.0793    9.0659 C.3     1  UNL1        0.0937
     11 C          13.0988   41.3667    8.9867 C.3     1  UNL1        0.0996
     12 C          14.5104   42.4456    7.2127 C.2     1  UNL1        0.2490
     13 N          14.4116   41.6925    8.4357 N.am    1  UNL1       -0.2757
     14 O          13.5003   42.5260    6.4602 O.2     1  UNL1       -0.2699
     15 C          15.7554   43.1402    6.8073 C.ar    1  UNL1        0.0536
     16 C          16.7422   43.4156    7.7668 C.ar    1  UNL1        0.0054
     17 C          17.9345   44.0458    7.3993 C.ar    1  UNL1        0.0115
     18 C          18.1546   44.4006    6.0664 C.ar    1  UNL1        0.0577
     19 C          17.1853   44.1200    5.1003 C.ar    1  UNL1        0.0115
     20 C          15.9937   43.4897    5.4694 C.ar    1  UNL1        0.0054
     21 CL         19.6464   45.1910    5.6057 Cl      1  UNL1       -0.0822
     22 N           8.6563   41.2367   10.9152 N.pl3   1  UNL1       -0.2680
     23 H           8.5620   41.4438   11.8730 H       1  UNL1        0.1565
     24 C           5.6076   44.3932    7.2849 C.3     1  UNL1        0.0327
     25 C           6.3971   43.5620    8.2303 C.ar    1  UNL1       -0.0026
     26 C           7.4910   44.1073    8.9042 C.ar    1  UNL1        0.0960
     27 C           7.8927   42.0350   10.0030 C.ar    1  UNL1        0.1343
     28 C           6.8029   41.4584    9.3446 C.ar    1  UNL1        0.0342
     29 C           6.0529   42.2285    8.4538 C.ar    1  UNL1        0.0001
     30 N           8.2090   43.3400    9.7681 N.ar    1  UNL1       -0.2293
@<TRIPOS>BOND
     1    24    25    1
     2    26    30   ar
     3    27    28   ar
     4    27    22    1
     5    29    25   ar
     6     1     6   ar
     7     2     5   ar
     8     3     4   ar
     9     7     4    1
    10     7     8    1
    11     8     9    1
    12     9    10    1
    13    10    13    1
    14    11    13    1
    15    11     7    1
    16    12    15    1
    17    16    17   ar
    18    18    19   ar
    19    18    21    1
    20    20    15   ar
    21    22     1    1
    22    13    12   am
    23    25    26   ar
    24    27    30   ar
    25    28    29   ar
    26     1     5   ar
    27     2     3   ar
    28     4     6   ar
    29    12    14    2
    30    15    16   ar
    31    17    18   ar
    32    19    20   ar
    33    22    23    1
@<TRIPOS>MOLECULE
MolPort-020-295-094 MCULE-2560501570 PubChem-110267191
 30 33 0 0 0
SMALL
GASTEIGER

@<TRIPOS>ATOM
      1 C           6.9350   41.4335   10.7634 C.ar    1  UNL1        0.2214
      2 C           8.4935   41.2335   12.5343 C.ar    1  UNL1        0.1031
      3 C           9.5459   41.2211   11.6218 C.ar    1  UNL1        0.0356
      4 C           9.2469   41.3183   10.2585 C.ar    1  UNL1        0.0647
      5 N           7.2137   41.3387   12.0923 N.ar    1  UNL1       -0.2120
      6 N           7.9515   41.4227    9.8609 N.ar    1  UNL1       -0.2179
      7 C          10.3291   41.3125    9.2263 C.3     1  UNL1        0.0603
      8 C          10.7370   39.8831    8.8617 C.3     1  UNL1        0.0094
      9 C          11.8258   39.8990    7.7918 C.3     1  UNL1        0.0220
     10 C          13.0323   40.6940    8.2826 C.3     1  UNL1        0.0937
     11 C          11.5424   42.1141    9.6984 C.3     1  UNL1        0.0996
     12 C          13.0684   43.2205    8.0399 C.2     1  UNL1        0.2490
     13 N          12.6048   42.0279    8.6998 N.am    1  UNL1       -0.2757
     14 O          12.3482   44.2565    8.0708 O.2     1  UNL1       -0.2699
     15 C          14.3687   43.2801    7.3309 C.ar    1  UNL1        0.0536
     16 C          15.5564   43.0233    8.0336 C.ar    1  UNL1        0.0054
     17 C          16.7902   43.0485    7.3770 C.ar    1  UNL1        0.0115
     18 C          16.8473   43.3239    6.0088 C.ar    1  UNL1        0.0577
     19 C          15.6709   43.5683    5.2963 C.ar    1  UNL1        0.0115
     20 C          14.4380   43.5427    5.9543 C.ar    1  UNL1        0.0054
     21 CL         18.3916   43.3571    5.1863 Cl      1  UNL1       -0.0822
     22 N           5.5859   41.5452   10.2944 N.pl3   1  UNL1       -0.2680
     23 H           4.9554   40.8473   10.5853 H       1  UNL1        0.1565
     24 C           3.5349   45.6376    6.9058 C.3     1  UNL1        0.0327
     25 C           4.0792   44.5722    7.7872 C.ar    1  UNL1       -0.0026
     26 C           3.2182   43.7703    8.5381 C.ar    1  UNL1        0.0960
     27 C           5.0649   42.5733    9.4435 C.ar    1  UNL1        0.1343
     28 C           5.9544   43.3585    8.7047 C.ar    1  UNL1        0.0342
     29 C           5.4560   44.3628    7.8729 C.ar    1  UNL1        0.0001
     30 N           3.7239   42.7970    9.3427 N.ar    1  UNL1       -0.2293
@<TRIPOS>BOND
     1    24    25    1
     2    26    30   ar
     3    27    28   ar
     4    27    22    1
     5    29    25   ar
     6     1     6   ar
     7     2     5   ar
     8     3     4   ar
     9     7     4    1
    10     7     8    1
    11     8     9    1
    12     9    10    1
    13    10    13    1
    14    11    13    1
    15    11     7    1
    16    12    15    1
    17    16    17   ar
    18    18    19   ar
    19    18    21    1
    20    20    15   ar
    21    22     1    1
    22    13    12   am
    23    25    26   ar
    24    27    30   ar
    25    28    29   ar
    26     1     5   ar
    27     2     3   ar
    28     4     6   ar
    29    12    14    2
    30    15    16   ar
    31    17    18   ar
    32    19    20   ar
    33    22    23    1
