@<TRIPOS>MOLECULE
MolPort-045-950-974 822752122 CSSS00160386206 MCULE-1936791029 PubChem-131927634 ZINC000822752122
 29 30 0 0 0
SMALL
GASTEIGER

@<TRIPOS>ATOM
      1 C           9.1032   41.3521    9.2697 C.ar    1  UNL1        0.0848
      2 C           9.0718   40.4487    8.2029 C.ar    1  UNL1        0.0190
      3 C           9.9210   40.6131    7.1079 C.ar    1  UNL1        0.0162
      4 C          10.8022   41.7004    7.0546 C.ar    1  UNL1        0.0537
      5 C          10.8262   42.6142    8.1103 C.ar    1  UNL1        0.0528
      6 C           9.9713   42.4641    9.2153 C.ar    1  UNL1        0.1533
      7 C           6.8541   41.6298   10.4268 C.2     1  UNL1        0.2262
      8 O           6.4611   42.5426    9.6529 O.2     1  UNL1       -0.2748
      9 N           8.1990   41.1429   10.3619 N.am    1  UNL1       -0.2815
     10 H           8.5293   40.6223   11.1295 H       1  UNL1        0.1549
     11 C           5.9225   41.0963   11.4621 C.3     1  UNL1        0.0854
     12 C           3.7252   39.9241   11.2799 C.3     1  UNL1        0.0005
     13 C           4.4763   41.2142   11.0072 C.3     1  UNL1        0.0096
     14 C          13.1041   42.2170    6.0703 C.2     1  UNL1        0.2526
     15 O          13.6330   42.8772    5.1372 O.2     1  UNL1       -0.2697
     16 N          11.7153   41.8732    5.9637 N.am    1  UNL1       -0.2802
     17 H          11.3559   41.7440    5.0562 H       1  UNL1        0.1552
     18 C          13.9412   41.7497    7.2004 C.ar    1  UNL1        0.0906
     19 C          15.2631   42.2191    7.3864 C.ar    1  UNL1        0.1767
     20 C          16.0314   41.7138    8.4690 C.ar    1  UNL1        0.1725
     21 C          15.4663   40.7607    9.3311 C.ar    1  UNL1        0.0401
     22 C          14.1666   40.3038    9.1371 C.ar    1  UNL1        0.0035
     23 C          13.4117   40.7936    8.0763 C.ar    1  UNL1        0.0078
     24 C          15.7215   44.5906    6.6992 C.3     1  UNL1        0.2526
     25 O          15.7534   43.1861    6.4900 O.3     1  UNL1       -0.4682
     26 C          17.6632   43.5073    8.9937 C.3     1  UNL1        0.2526
     27 O          17.3416   42.1576    8.6839 O.3     1  UNL1       -0.4684
     28 C           9.1984   44.6214   10.1585 C.3     1  UNL1        0.2525
     29 O           9.9529   43.4196   10.2380 O.3     1  UNL1       -0.4701
@<TRIPOS>BOND
     1    12    13    1
     2    13    11    1
     3    11     7    1
     4     7     9   am
     5     2     3   ar
     6     4    16    1
     7     4     5   ar
     8    14    18    1
     9    19    25    1
    10    19    20   ar
    11    24    25    1
    12    20    27    1
    13    26    27    1
    14    21    22   ar
    15    23    18   ar
    16     6    29    1
    17     6     1   ar
    18    28    29    1
    19     9     1    1
    20    16    14   am
    21     7     8    2
    22     1     2   ar
    23     3     4   ar
    24    14    15    2
    25    18    19   ar
    26    20    21   ar
    27    22    23   ar
    28     5     6   ar
    29     9    10    1
    30    16    17    1
@<TRIPOS>MOLECULE
MolPort-045-950-974 822752122 CSSS00160386206 MCULE-1936791029 PubChem-131927634 ZINC000822752122
 29 30 0 0 0
SMALL
GASTEIGER

@<TRIPOS>ATOM
      1 C          13.0098   41.2743    8.6729 C.ar    1  UNL1        0.0848
      2 C          11.7573   41.6824    8.2038 C.ar    1  UNL1        0.0190
      3 C          10.6036   41.4281    8.9464 C.ar    1  UNL1        0.0162
      4 C          10.6845   40.7400   10.1636 C.ar    1  UNL1        0.0537
      5 C          11.9313   40.3164   10.6287 C.ar    1  UNL1        0.0528
      6 C          13.0997   40.5599    9.8873 C.ar    1  UNL1        0.1533
      7 C          14.4161   42.7829    7.1825 C.2     1  UNL1        0.2262
      8 O          13.4943   43.6217    6.9996 O.2     1  UNL1       -0.2748
      9 N          14.1596   41.5492    7.8625 N.am    1  UNL1       -0.2815
     10 H          14.8269   40.8319    7.7656 H       1  UNL1        0.1549
     11 C          15.7739   43.0549    6.6287 C.3     1  UNL1        0.0854
     12 C          18.0143   43.9983    7.1992 C.3     1  UNL1        0.0005
     13 C          16.5271   44.0513    7.4961 C.3     1  UNL1        0.0096
     14 C           8.5604   41.4827   11.3765 C.2     1  UNL1        0.2526
     15 O           7.9638   41.3196   12.4737 O.2     1  UNL1       -0.2697
     16 N           9.5233   40.5004   10.9685 N.am    1  UNL1       -0.2802
     17 H           9.3721   39.5753   11.2696 H       1  UNL1        0.1552
     18 C           8.1965   42.6286   10.5100 C.ar    1  UNL1        0.0906
     19 C           7.1484   42.5377    9.5637 C.ar    1  UNL1        0.1767
     20 C           6.8627   43.6571    8.7373 C.ar    1  UNL1        0.1725
     21 C           7.6237   44.8288    8.8747 C.ar    1  UNL1        0.0401
     22 C           8.6540   44.9062    9.8065 C.ar    1  UNL1        0.0035
     23 C           8.9393   43.8112   10.6156 C.ar    1  UNL1        0.0078
     24 C           5.1405   41.1173   10.0708 C.3     1  UNL1        0.2526
     25 O           6.4210   41.3355    9.4962 O.3     1  UNL1       -0.4682
     26 C           4.7419   44.5159    7.7783 C.3     1  UNL1        0.2526
     27 O           5.8316   43.6029    7.7919 O.3     1  UNL1       -0.4684
     28 C          14.4692   39.1627   11.4082 C.3     1  UNL1        0.2525
     29 O          14.3371   40.0744   10.3260 O.3     1  UNL1       -0.4701
@<TRIPOS>BOND
     1    12    13    1
     2    13    11    1
     3    11     7    1
     4     7     9   am
     5     2     3   ar
     6     4    16    1
     7     4     5   ar
     8    14    18    1
     9    19    25    1
    10    19    20   ar
    11    24    25    1
    12    20    27    1
    13    26    27    1
    14    21    22   ar
    15    23    18   ar
    16     6    29    1
    17     6     1   ar
    18    28    29    1
    19     9     1    1
    20    16    14   am
    21     7     8    2
    22     1     2   ar
    23     3     4   ar
    24    14    15    2
    25    18    19   ar
    26    20    21   ar
    27    22    23   ar
    28     5     6   ar
    29     9    10    1
    30    16    17    1
@<TRIPOS>MOLECULE
MolPort-045-950-974 822752122 CSSS00160386206 MCULE-1936791029 PubChem-131927634 ZINC000822752122
 29 30 0 0 0
SMALL
GASTEIGER

@<TRIPOS>ATOM
      1 C          10.4007   40.4475    9.1478 C.ar    1  UNL1        0.0848
      2 C          11.5028   40.2939    8.3011 C.ar    1  UNL1        0.0190
      3 C          12.7821   40.1095    8.8271 C.ar    1  UNL1        0.0162
      4 C          12.9807   40.0977   10.2135 C.ar    1  UNL1        0.0537
      5 C          11.8854   40.2666   11.0632 C.ar    1  UNL1        0.0528
      6 C          10.5932   40.4602   10.5464 C.ar    1  UNL1        0.1533
      7 C           8.5597   41.9166    8.1849 C.2     1  UNL1        0.2262
      8 O           9.0462   42.9870    8.6367 O.2     1  UNL1       -0.2748
      9 N           9.1120   40.6480    8.5533 N.am    1  UNL1       -0.2815
     10 H           8.5622   39.8489    8.3846 H       1  UNL1        0.1549
     11 C           7.3564   41.9732    7.3055 C.3     1  UNL1        0.0854
     12 C           6.0194   44.0805    7.3883 C.3     1  UNL1        0.0005
     13 C           6.2124   42.7021    7.9928 C.3     1  UNL1        0.0096
     14 C          14.7690   38.6190   11.2858 C.2     1  UNL1        0.2526
     15 O          15.6046   38.6377   12.2279 O.2     1  UNL1       -0.2697
     16 N          14.2753   39.8691   10.7839 N.am    1  UNL1       -0.2802
     17 H          14.8827   40.6422   10.8363 H       1  UNL1        0.1552
     18 C          14.3851   37.3244   10.6751 C.ar    1  UNL1        0.0906
     19 C          15.1643   36.7263    9.6564 C.ar    1  UNL1        0.1767
     20 C          14.7327   35.4998    9.0847 C.ar    1  UNL1        0.1725
     21 C          13.5445   34.9062    9.5396 C.ar    1  UNL1        0.0401
     22 C          12.7846   35.5046   10.5397 C.ar    1  UNL1        0.0035
     23 C          13.2019   36.7074   11.1002 C.ar    1  UNL1        0.0078
     24 C          17.6556   37.0369    9.7125 C.3     1  UNL1        0.2526
     25 O          16.3503   37.3737    9.2651 O.3     1  UNL1       -0.4682
     26 C          16.2641   33.7140    8.2969 C.3     1  UNL1        0.2526
     27 O          15.4799   34.8792    8.0765 O.3     1  UNL1       -0.4684
     28 C           9.6442   41.3581   12.6521 C.3     1  UNL1        0.2525
     29 O           9.5107   40.6956   11.4018 O.3     1  UNL1       -0.4701
@<TRIPOS>BOND
     1    12    13    1
     2    13    11    1
     3    11     7    1
     4     7     9   am
     5     2     3   ar
     6     4    16    1
     7     4     5   ar
     8    14    18    1
     9    19    25    1
    10    19    20   ar
    11    24    25    1
    12    20    27    1
    13    26    27    1
    14    21    22   ar
    15    23    18   ar
    16     6    29    1
    17     6     1   ar
    18    28    29    1
    19     9     1    1
    20    16    14   am
    21     7     8    2
    22     1     2   ar
    23     3     4   ar
    24    14    15    2
    25    18    19   ar
    26    20    21   ar
    27    22    23   ar
    28     5     6   ar
    29     9    10    1
    30    16    17    1
@<TRIPOS>MOLECULE
MolPort-045-950-974 822752122 CSSS00160386206 MCULE-1936791029 PubChem-131927634 ZINC000822752122
 29 30 0 0 0
SMALL
GASTEIGER

@<TRIPOS>ATOM
      1 C          12.1239   41.2296    8.3197 C.ar    1  UNL1        0.0848
      2 C          13.4062   41.0990    7.7777 C.ar    1  UNL1        0.0190
      3 C          14.4464   40.5608    8.5363 C.ar    1  UNL1        0.0162
      4 C          14.2226   40.1639    9.8607 C.ar    1  UNL1        0.0537
      5 C          12.9474   40.3071   10.4117 C.ar    1  UNL1        0.0528
      6 C          11.8932   40.8541    9.6609 C.ar    1  UNL1        0.1533
      7 C          10.0168   41.0774    6.9015 C.2     1  UNL1        0.2262
      8 O          10.0596   39.8224    6.8022 O.2     1  UNL1       -0.2748
      9 N          11.0967   41.8021    7.5002 N.am    1  UNL1       -0.2815
     10 H          11.1370   42.7719    7.3357 H       1  UNL1        0.1549
     11 C           8.8539   41.8175    6.3322 C.3     1  UNL1        0.0854
     12 C           7.6849   43.3608    7.9092 C.3     1  UNL1        0.0005
     13 C           7.7369   41.9488    7.3557 C.3     1  UNL1        0.0096
     14 C          15.1797   38.3176   11.3471 C.2     1  UNL1        0.2526
     15 O          15.8486   38.1742   12.4046 O.2     1  UNL1       -0.2697
     16 N          15.2597   39.5698   10.6512 N.am    1  UNL1       -0.2802
     17 H          16.1061   40.0672   10.7236 H       1  UNL1        0.1552
     18 C          14.4016   37.1746   10.8139 C.ar    1  UNL1        0.0906
     19 C          15.0066   36.1750   10.0158 C.ar    1  UNL1        0.1767
     20 C          14.2065   35.1182    9.5053 C.ar    1  UNL1        0.1725
     21 C          12.8345   35.0859    9.8012 C.ar    1  UNL1        0.0401
     22 C          12.2494   36.0757   10.5845 C.ar    1  UNL1        0.0035
     23 C          13.0286   37.1142   11.0839 C.ar    1  UNL1        0.0078
     24 C          16.9942   36.4056    8.4983 C.3     1  UNL1        0.2526
     25 O          16.3897   36.2677    9.7762 O.3     1  UNL1       -0.4682
     26 C          14.2594   32.7867    8.6591 C.3     1  UNL1        0.2526
     27 O          14.7724   34.1114    8.7141 O.3     1  UNL1       -0.4684
     28 C          10.2272   42.3049   10.7836 C.3     1  UNL1        0.2525
     29 O          10.6351   41.0567   10.2401 O.3     1  UNL1       -0.4701
@<TRIPOS>BOND
     1    12    13    1
     2    13    11    1
     3    11     7    1
     4     7     9   am
     5     2     3   ar
     6     4    16    1
     7     4     5   ar
     8    14    18    1
     9    19    25    1
    10    19    20   ar
    11    24    25    1
    12    20    27    1
    13    26    27    1
    14    21    22   ar
    15    23    18   ar
    16     6    29    1
    17     6     1   ar
    18    28    29    1
    19     9     1    1
    20    16    14   am
    21     7     8    2
    22     1     2   ar
    23     3     4   ar
    24    14    15    2
    25    18    19   ar
    26    20    21   ar
    27    22    23   ar
    28     5     6   ar
    29     9    10    1
    30    16    17    1
@<TRIPOS>MOLECULE
MolPort-045-950-974 822752122 CSSS00160386206 MCULE-1936791029 PubChem-131927634 ZINC000822752122
 29 30 0 0 0
SMALL
GASTEIGER

@<TRIPOS>ATOM
      1 C           9.2959   40.9124    9.6245 C.ar    1  UNL1        0.0848
      2 C           9.9951   40.3352    8.5600 C.ar    1  UNL1        0.0190
      3 C          11.3619   40.0745    8.6663 C.ar    1  UNL1        0.0162
      4 C          12.0557   40.4089    9.8361 C.ar    1  UNL1        0.0537
      5 C          11.3650   41.0002   10.8961 C.ar    1  UNL1        0.0528
      6 C           9.9904   41.2744   10.7992 C.ar    1  UNL1        0.1533
      7 C           7.3410   42.2596    8.7092 C.2     1  UNL1        0.2262
      8 O           8.0492   43.2524    8.3937 O.2     1  UNL1       -0.2748
      9 N           7.8963   41.1710    9.4553 N.am    1  UNL1       -0.2815
     10 H           7.2660   40.5501    9.8870 H       1  UNL1        0.1549
     11 C           5.8928   42.2505    8.3527 C.3     1  UNL1        0.0854
     12 C           5.0293   44.5286    7.8052 C.3     1  UNL1        0.0005
     13 C           5.1898   43.4850    8.8951 C.3     1  UNL1        0.0096
     14 C          14.4592   40.2505    8.9801 C.2     1  UNL1        0.2526
     15 O          15.4507   39.4747    9.0142 O.2     1  UNL1       -0.2697
     16 N          13.4499   40.1161    9.9910 N.am    1  UNL1       -0.2802
     17 H          13.7426   39.7924   10.8735 H       1  UNL1        0.1552
     18 C          14.4037   41.3209    7.9567 C.ar    1  UNL1        0.0906
     19 C          15.4766   42.2248    7.7717 C.ar    1  UNL1        0.1767
     20 C          15.3570   43.2512    6.7972 C.ar    1  UNL1        0.1725
     21 C          14.1798   43.3492    6.0385 C.ar    1  UNL1        0.0401
     22 C          13.1298   42.4570    6.2309 C.ar    1  UNL1        0.0035
     23 C          13.2414   41.4522    7.1864 C.ar    1  UNL1        0.0078
     24 C          17.4713   43.0985    9.0224 C.3     1  UNL1        0.2526
     25 O          16.6294   42.0524    8.5593 O.3     1  UNL1       -0.4682
     26 C          17.4305   43.9530    5.6297 C.3     1  UNL1        0.2526
     27 O          16.3996   44.1613    6.5862 O.3     1  UNL1       -0.4684
     28 C           8.6891   41.2341   12.9078 C.3     1  UNL1        0.2525
     29 O           9.3183   41.9277   11.8388 O.3     1  UNL1       -0.4701
@<TRIPOS>BOND
     1    12    13    1
     2    13    11    1
     3    11     7    1
     4     7     9   am
     5     2     3   ar
     6     4    16    1
     7     4     5   ar
     8    14    18    1
     9    19    25    1
    10    19    20   ar
    11    24    25    1
    12    20    27    1
    13    26    27    1
    14    21    22   ar
    15    23    18   ar
    16     6    29    1
    17     6     1   ar
    18    28    29    1
    19     9     1    1
    20    16    14   am
    21     7     8    2
    22     1     2   ar
    23     3     4   ar
    24    14    15    2
    25    18    19   ar
    26    20    21   ar
    27    22    23   ar
    28     5     6   ar
    29     9    10    1
    30    16    17    1
@<TRIPOS>MOLECULE
MolPort-045-950-974 822752122 CSSS00160386206 MCULE-1936791029 PubChem-131927634 ZINC000822752122
 29 30 0 0 0
SMALL
GASTEIGER

@<TRIPOS>ATOM
      1 C          13.3571   38.0173    9.0293 C.ar    1  UNL1        0.0848
      2 C          12.0008   37.8993    9.3480 C.ar    1  UNL1        0.0190
      3 C          11.3073   38.9724    9.9092 C.ar    1  UNL1        0.0162
      4 C          11.9690   40.1766   10.1804 C.ar    1  UNL1        0.0537
      5 C          13.3274   40.2940    9.8786 C.ar    1  UNL1        0.0528
      6 C          14.0389   39.2188    9.3200 C.ar    1  UNL1        0.1533
      7 C          14.7495   35.8954    9.2133 C.2     1  UNL1        0.2262
      8 O          15.1150   36.1240   10.3969 O.2     1  UNL1       -0.2748
      9 N          14.0230   36.8788    8.4681 N.am    1  UNL1       -0.2815
     10 H          13.9771   36.7637    7.4914 H       1  UNL1        0.1549
     11 C          15.1335   34.6089    8.5640 C.3     1  UNL1        0.0854
     12 C          16.2444   34.9752    6.3579 C.3     1  UNL1        0.0005
     13 C          16.4647   34.7390    7.8406 C.3     1  UNL1        0.0096
     14 C          10.7478   42.4120    9.9658 C.2     1  UNL1        0.2526
     15 O          10.6940   43.5434   10.5165 O.2     1  UNL1       -0.2697
     16 N          11.2750   41.3095   10.7176 N.am    1  UNL1       -0.2802
     17 H          11.1480   41.3334   11.6936 H       1  UNL1        0.1552
     18 C          10.1967   42.2363    8.6014 C.ar    1  UNL1        0.0906
     19 C           8.8112   42.3584    8.3411 C.ar    1  UNL1        0.1767
     20 C           8.3339   42.1491    7.0198 C.ar    1  UNL1        0.1725
     21 C           9.2432   41.8258    6.0003 C.ar    1  UNL1        0.0401
     22 C          10.6032   41.7053    6.2681 C.ar    1  UNL1        0.0035
     23 C          11.0746   41.9063    7.5613 C.ar    1  UNL1        0.0078
     24 C           7.0957   41.8046   10.0896 C.3     1  UNL1        0.2526
     25 O           7.9651   42.7003    9.4117 O.3     1  UNL1       -0.4682
     26 C           6.3213   43.5129    6.5254 C.3     1  UNL1        0.2526
     27 O           6.9699   42.2639    6.7261 O.3     1  UNL1       -0.4684
     28 C          16.3685   39.4813   10.1231 C.3     1  UNL1        0.2525
     29 O          15.4145   39.3205    9.0820 O.3     1  UNL1       -0.4701
@<TRIPOS>BOND
     1    12    13    1
     2    13    11    1
     3    11     7    1
     4     7     9   am
     5     2     3   ar
     6     4    16    1
     7     4     5   ar
     8    14    18    1
     9    19    25    1
    10    19    20   ar
    11    24    25    1
    12    20    27    1
    13    26    27    1
    14    21    22   ar
    15    23    18   ar
    16     6    29    1
    17     6     1   ar
    18    28    29    1
    19     9     1    1
    20    16    14   am
    21     7     8    2
    22     1     2   ar
    23     3     4   ar
    24    14    15    2
    25    18    19   ar
    26    20    21   ar
    27    22    23   ar
    28     5     6   ar
    29     9    10    1
    30    16    17    1
@<TRIPOS>MOLECULE
MolPort-045-950-974 822752122 CSSS00160386206 MCULE-1936791029 PubChem-131927634 ZINC000822752122
 29 30 0 0 0
SMALL
GASTEIGER

@<TRIPOS>ATOM
      1 C           5.2437   42.3006    9.8496 C.ar    1  UNL1        0.0848
      2 C           6.0141   41.1522    9.6425 C.ar    1  UNL1        0.0190
      3 C           6.7764   41.0082    8.4826 C.ar    1  UNL1        0.0162
      4 C           6.7617   42.0056    7.4995 C.ar    1  UNL1        0.0537
      5 C           5.9814   43.1472    7.6944 C.ar    1  UNL1        0.0528
      6 C           5.2038   43.3013    8.8546 C.ar    1  UNL1        0.1533
      7 C           3.0834   42.0487   11.1704 C.2     1  UNL1        0.2262
      8 O           2.3592   41.9307   10.1465 O.2     1  UNL1       -0.2748
      9 N           4.4691   42.3893   11.0523 N.am    1  UNL1       -0.2815
     10 H           4.9268   42.7103   11.8627 H       1  UNL1        0.1549
     11 C           2.4719   41.8915   12.5215 C.3     1  UNL1        0.0854
     12 C           0.4805   42.3789   13.9470 C.3     1  UNL1        0.0005
     13 C           1.1610   42.6559   12.6192 C.3     1  UNL1        0.0096
     14 C           8.9581   41.5639    6.2686 C.2     1  UNL1        0.2526
     15 O           9.6622   42.0430    5.3407 O.2     1  UNL1       -0.2697
     16 N           7.5655   41.9056    6.3173 N.am    1  UNL1       -0.2802
     17 H           7.1206   42.0884    5.4583 H       1  UNL1        0.1552
     18 C           9.5629   40.6074    7.2255 C.ar    1  UNL1        0.0906
     19 C          10.2806   41.0506    8.3617 C.ar    1  UNL1        0.1767
     20 C          10.8661   40.0900    9.2288 C.ar    1  UNL1        0.1725
     21 C          10.7222   38.7230    8.9428 C.ar    1  UNL1        0.0401
     22 C          10.0169   38.2985    7.8211 C.ar    1  UNL1        0.0035
     23 C           9.4446   39.2359    6.9675 C.ar    1  UNL1        0.0078
     24 C           9.7793   43.1271    9.6819 C.3     1  UNL1        0.2526
     25 O          10.3678   42.4360    8.5894 O.3     1  UNL1       -0.4682
     26 C          12.8735   39.9947   10.6835 C.3     1  UNL1        0.2526
     27 O          11.5811   40.4929   10.3630 O.3     1  UNL1       -0.4684
     28 C           3.5419   44.9145    7.9733 C.3     1  UNL1        0.2525
     29 O           4.3726   44.4162    9.0133 O.3     1  UNL1       -0.4701
@<TRIPOS>BOND
     1    12    13    1
     2    13    11    1
     3    11     7    1
     4     7     9   am
     5     2     3   ar
     6     4    16    1
     7     4     5   ar
     8    14    18    1
     9    19    25    1
    10    19    20   ar
    11    24    25    1
    12    20    27    1
    13    26    27    1
    14    21    22   ar
    15    23    18   ar
    16     6    29    1
    17     6     1   ar
    18    28    29    1
    19     9     1    1
    20    16    14   am
    21     7     8    2
    22     1     2   ar
    23     3     4   ar
    24    14    15    2
    25    18    19   ar
    26    20    21   ar
    27    22    23   ar
    28     5     6   ar
    29     9    10    1
    30    16    17    1
@<TRIPOS>MOLECULE
MolPort-045-950-974 822752122 CSSS00160386206 MCULE-1936791029 PubChem-131927634 ZINC000822752122
 29 30 0 0 0
SMALL
GASTEIGER

@<TRIPOS>ATOM
      1 C           9.1196   41.0359    8.7925 C.ar    1  UNL1        0.0848
      2 C           9.6908   39.7699    8.6309 C.ar    1  UNL1        0.0190
      3 C          11.0302   39.5487    8.9538 C.ar    1  UNL1        0.0162
      4 C          11.8262   40.6005    9.4245 C.ar    1  UNL1        0.0537
      5 C          11.2646   41.8705    9.5726 C.ar    1  UNL1        0.0528
      6 C           9.9192   42.1082    9.2443 C.ar    1  UNL1        0.1533
      7 C           6.6797   41.5007    9.3450 C.2     1  UNL1        0.2262
      8 O           6.8278   41.3263   10.5836 O.2     1  UNL1       -0.2748
      9 N           7.7434   41.2096    8.4318 N.am    1  UNL1       -0.2815
     10 H           7.5107   41.1217    7.4792 H       1  UNL1        0.1549
     11 C           5.3593   41.9571    8.8227 C.3     1  UNL1        0.0854
     12 C           3.0377   41.8671    9.7376 C.3     1  UNL1        0.0005
     13 C           4.4447   42.3915    9.9572 C.3     1  UNL1        0.0096
     14 C          14.3362   40.5257    8.9466 C.2     1  UNL1        0.2526
     15 O          15.3460   39.8096    9.1791 O.2     1  UNL1       -0.2697
     16 N          13.1929   40.3955    9.8035 N.am    1  UNL1       -0.2802
     17 H          13.3633   40.1416   10.7394 H       1  UNL1        0.1552
     18 C          14.3870   41.5286    7.8567 C.ar    1  UNL1        0.0906
     19 C          15.5033   42.3814    7.6866 C.ar    1  UNL1        0.1767
     20 C          15.4853   43.3459    6.6440 C.ar    1  UNL1        0.1725
     21 C          14.3633   43.4345    5.8047 C.ar    1  UNL1        0.0401
     22 C          13.2698   42.5929    5.9829 C.ar    1  UNL1        0.0035
     23 C          13.2819   41.6491    7.0047 C.ar    1  UNL1        0.0078
     24 C          17.4614   43.2619    8.9893 C.3     1  UNL1        0.2526
     25 O          16.5962   42.2214    8.5577 O.3     1  UNL1       -0.4682
     26 C          17.5972   43.9524    5.4923 C.3     1  UNL1        0.2526
     27 O          16.5732   44.2043    6.4457 O.3     1  UNL1       -0.4684
     28 C           9.3095   44.1237   10.5508 C.3     1  UNL1        0.2525
     29 O           9.3806   43.3972    9.3314 O.3     1  UNL1       -0.4701
@<TRIPOS>BOND
     1    12    13    1
     2    13    11    1
     3    11     7    1
     4     7     9   am
     5     2     3   ar
     6     4    16    1
     7     4     5   ar
     8    14    18    1
     9    19    25    1
    10    19    20   ar
    11    24    25    1
    12    20    27    1
    13    26    27    1
    14    21    22   ar
    15    23    18   ar
    16     6    29    1
    17     6     1   ar
    18    28    29    1
    19     9     1    1
    20    16    14   am
    21     7     8    2
    22     1     2   ar
    23     3     4   ar
    24    14    15    2
    25    18    19   ar
    26    20    21   ar
    27    22    23   ar
    28     5     6   ar
    29     9    10    1
    30    16    17    1
@<TRIPOS>MOLECULE
MolPort-045-950-974 822752122 CSSS00160386206 MCULE-1936791029 PubChem-131927634 ZINC000822752122
 29 30 0 0 0
SMALL
GASTEIGER

@<TRIPOS>ATOM
      1 C          10.0584   40.4490    9.2375 C.ar    1  UNL1        0.0848
      2 C          10.2511   40.6752   10.6038 C.ar    1  UNL1        0.0190
      3 C          11.5070   40.4921   11.1837 C.ar    1  UNL1        0.0162
      4 C          12.5875   40.0576   10.4057 C.ar    1  UNL1        0.0537
      5 C          12.3964   39.8150    9.0438 C.ar    1  UNL1        0.0528
      6 C          11.1353   39.9887    8.4491 C.ar    1  UNL1        0.1533
      7 C           7.6910   41.3775    9.3264 C.2     1  UNL1        0.2262
      8 O           7.7475   41.6645   10.5516 O.2     1  UNL1       -0.2748
      9 N           8.7442   40.6389    8.6977 N.am    1  UNL1       -0.2815
     10 H           8.5501   40.2284    7.8242 H       1  UNL1        0.1549
     11 C           6.4828   41.7597    8.5399 C.3     1  UNL1        0.0854
     12 C           7.1459   44.0222    7.7172 C.3     1  UNL1        0.0005
     13 C           6.8642   42.5847    7.3208 C.3     1  UNL1        0.0096
     14 C          14.4826   38.6703   11.4151 C.2     1  UNL1        0.2526
     15 O          15.3199   38.7125   12.3550 O.2     1  UNL1       -0.2697
     16 N          13.8983   39.9004   10.9634 N.am    1  UNL1       -0.2802
     17 H          14.4492   40.7123   11.0441 H       1  UNL1        0.1552
     18 C          14.1887   37.3761   10.7557 C.ar    1  UNL1        0.0906
     19 C          15.0360   36.8464    9.7536 C.ar    1  UNL1        0.1767
     20 C          14.6895   35.6167    9.1330 C.ar    1  UNL1        0.1725
     21 C          13.5163   34.9522    9.5242 C.ar    1  UNL1        0.0401
     22 C          12.6889   35.4837   10.5085 C.ar    1  UNL1        0.0035
     23 C          13.0227   36.6893   11.1167 C.ar    1  UNL1        0.0078
     24 C          17.5041   37.2796    9.9188 C.3     1  UNL1        0.2526
     25 O          16.2018   37.5628    9.4272 O.3     1  UNL1       -0.4682
     26 C          16.4004   33.9848    8.3816 C.3     1  UNL1        0.2526
     27 O          15.5056   35.0627    8.1395 O.3     1  UNL1       -0.4684
     28 C          11.6069   40.3550    6.0440 C.3     1  UNL1        0.2525
     29 O          10.9348   39.6798    7.0987 O.3     1  UNL1       -0.4701
@<TRIPOS>BOND
     1    12    13    1
     2    13    11    1
     3    11     7    1
     4     7     9   am
     5     2     3   ar
     6     4    16    1
     7     4     5   ar
     8    14    18    1
     9    19    25    1
    10    19    20   ar
    11    24    25    1
    12    20    27    1
    13    26    27    1
    14    21    22   ar
    15    23    18   ar
    16     6    29    1
    17     6     1   ar
    18    28    29    1
    19     9     1    1
    20    16    14   am
    21     7     8    2
    22     1     2   ar
    23     3     4   ar
    24    14    15    2
    25    18    19   ar
    26    20    21   ar
    27    22    23   ar
    28     5     6   ar
    29     9    10    1
    30    16    17    1
@<TRIPOS>MOLECULE
MolPort-045-950-974 822752122 CSSS00160386206 MCULE-1936791029 PubChem-131927634 ZINC000822752122
 29 30 0 0 0
SMALL
GASTEIGER

@<TRIPOS>ATOM
      1 C          12.5326   41.6626    6.9613 C.ar    1  UNL1        0.0848
      2 C          12.6669   41.7840    8.3478 C.ar    1  UNL1        0.0190
      3 C          12.1391   40.8133    9.2001 C.ar    1  UNL1        0.0162
      4 C          11.4477   39.7138    8.6759 C.ar    1  UNL1        0.0537
      5 C          11.2971   39.5963    7.2926 C.ar    1  UNL1        0.0528
      6 C          11.8176   40.5703    6.4239 C.ar    1  UNL1        0.1533
      7 C          14.3020   43.4000    6.3909 C.2     1  UNL1        0.2262
      8 O          14.8343   43.3717    7.5322 O.2     1  UNL1       -0.2748
      9 N          13.0818   42.6962    6.1341 N.am    1  UNL1       -0.2815
     10 H          12.5795   42.9421    5.3238 H       1  UNL1        0.1549
     11 C          14.9202   44.2273    5.3150 C.3     1  UNL1        0.0854
     12 C          17.3792   43.9049    5.6059 C.3     1  UNL1        0.0005
     13 C          16.2168   44.8624    5.7925 C.3     1  UNL1        0.0096
     14 C          11.6895   37.6206   10.1231 C.2     1  UNL1        0.2526
     15 O          11.1187   36.5181   10.3355 O.2     1  UNL1       -0.2697
     16 N          10.9305   38.6798    9.5227 N.am    1  UNL1       -0.2802
     17 H           9.9641   38.6979    9.7098 H       1  UNL1        0.1552
     18 C          13.0894   37.8164   10.5685 C.ar    1  UNL1        0.0906
     19 C          14.1496   37.0424   10.0401 C.ar    1  UNL1        0.1767
     20 C          15.4680   37.2510   10.5258 C.ar    1  UNL1        0.1725
     21 C          15.6932   38.2181   11.5183 C.ar    1  UNL1        0.0401
     22 C          14.6428   38.9714   12.0330 C.ar    1  UNL1        0.0035
     23 C          13.3496   38.7682   11.5624 C.ar    1  UNL1        0.0078
     24 C          13.9763   34.6953    9.1641 C.3     1  UNL1        0.2526
     25 O          13.8468   36.1040    9.0368 O.3     1  UNL1       -0.4682
     26 C          17.8485   37.0379    9.8608 C.3     1  UNL1        0.2526
     27 O          16.5409   36.5047   10.0241 O.3     1  UNL1       -0.4684
     28 C          10.4286   39.9202    4.4773 C.3     1  UNL1        0.2525
     29 O          11.6054   40.4813    5.0432 O.3     1  UNL1       -0.4701
@<TRIPOS>BOND
     1    12    13    1
     2    13    11    1
     3    11     7    1
     4     7     9   am
     5     2     3   ar
     6     4    16    1
     7     4     5   ar
     8    14    18    1
     9    19    25    1
    10    19    20   ar
    11    24    25    1
    12    20    27    1
    13    26    27    1
    14    21    22   ar
    15    23    18   ar
    16     6    29    1
    17     6     1   ar
    18    28    29    1
    19     9     1    1
    20    16    14   am
    21     7     8    2
    22     1     2   ar
    23     3     4   ar
    24    14    15    2
    25    18    19   ar
    26    20    21   ar
    27    22    23   ar
    28     5     6   ar
    29     9    10    1
    30    16    17    1
