@<TRIPOS>MOLECULE
MolPort-003-082-986 CSSS03437203362 MCULE-5949923303 PubChem-16817414
 29 31 0 0 0
SMALL
GASTEIGER

@<TRIPOS>ATOM
      1 C          14.2608   39.1799    9.1141 C.ar    1  UNL1        0.2119
      2 C          13.0008   39.0804    9.6988 C.ar    1  UNL1        0.0929
      3 C          12.8051   37.7325    9.9251 C.ar    1  UNL1        0.0512
      4 C          11.7756   37.0246   10.5438 C.ar    1  UNL1        0.0044
      5 C          11.9083   35.6276   10.6359 C.ar    1  UNL1        0.0002
      6 C          13.0551   34.9806   10.1272 C.ar    1  UNL1        0.0031
      7 C          14.0886   35.7225    9.5279 C.ar    1  UNL1        0.0375
      8 C          13.9309   37.1044    9.4511 C.ar    1  UNL1        0.1468
      9 O          14.7860   37.9759    8.9692 O.2     1  UNL1       -0.4476
     10 C          14.9465   40.4132    8.7044 C.2     1  UNL1        0.2856
     11 O          16.0729   40.7016    9.1907 O.2     1  UNL1       -0.2664
     12 N          14.3122   41.2752    7.7501 N.am    1  UNL1       -0.2755
     13 H          13.4281   40.9890    7.4251 H       1  UNL1        0.1554
     14 C          14.0284   43.2906    6.3285 C.ar    1  UNL1        0.1519
     15 C          14.5606   44.4764    5.8077 C.ar    1  UNL1        0.0382
     16 C          15.8454   44.8993    6.1495 C.ar    1  UNL1        0.0032
     17 C          16.6195   44.1359    7.0205 C.ar    1  UNL1        0.0015
     18 C          16.1084   42.9494    7.5462 C.ar    1  UNL1        0.0178
     19 C          14.8174   42.5077    7.2136 C.ar    1  UNL1        0.0851
     20 O          12.7260   42.9530    5.9251 O.3     1  UNL1       -0.4742
     21 C          10.6292   41.7939    5.8189 C.3     1  UNL1        0.0512
     22 C          12.1101   41.6872    6.1165 C.3     1  UNL1        0.2056
     23 C          10.8261   40.4156    9.6389 C.2     1  UNL1        0.2410
     24 O          10.3735   39.8290    8.6211 O.2     1  UNL1       -0.2735
     25 N          12.1664   40.1800   10.0863 N.am    1  UNL1       -0.2803
     26 H          12.5491   40.8321   10.7168 H       1  UNL1        0.1550
     27 C           9.9728   41.4198   10.3371 C.3     1  UNL1        0.1561
     28 C           9.8754   41.0945   11.8149 C.3     1  UNL1        0.0273
     29 CL          8.3447   41.4608    9.6172 Cl      1  UNL1       -0.1052
@<TRIPOS>BOND
     1    21    22    1
     2    22    20    1
     3    14    20    1
     4    15    16   ar
     5    17    18   ar
     6    19    12    1
     7    19    14   ar
     8    10     1    1
     9     1     9   ar
    10     2     3   ar
    11     2    25    1
    12     4     5   ar
    13     6     7   ar
    14     8     9   ar
    15     8     3   ar
    16    27    23    1
    17    27    28    1
    18    27    29    1
    19    12    10   am
    20    25    23   am
    21    14    15   ar
    22    16    17   ar
    23    18    19   ar
    24    10    11    2
    25     1     2   ar
    26     3     4   ar
    27     5     6   ar
    28     7     8   ar
    29    23    24    2
    30    12    13    1
    31    25    26    1
@<TRIPOS>MOLECULE
MolPort-003-082-986 CSSS03437203362 MCULE-5949923303 PubChem-16817414
 29 31 0 0 0
SMALL
GASTEIGER

@<TRIPOS>ATOM
      1 C          13.1528   39.3062    8.6186 C.ar    1  UNL1        0.2119
      2 C          11.8635   39.1493    9.1213 C.ar    1  UNL1        0.0929
      3 C          11.8185   37.8647    9.6254 C.ar    1  UNL1        0.0512
      4 C          10.8305   37.1599   10.3116 C.ar    1  UNL1        0.0044
      5 C          11.1292   35.8475   10.7188 C.ar    1  UNL1        0.0002
      6 C          12.3936   35.2819   10.4470 C.ar    1  UNL1        0.0031
      7 C          13.3794   36.0242    9.7724 C.ar    1  UNL1        0.0375
      8 C          13.0564   37.3216    9.3816 C.ar    1  UNL1        0.1468
      9 O          13.8379   38.1878    8.7802 O.2     1  UNL1       -0.4476
     10 C          13.7141   40.5128    7.9956 C.2     1  UNL1        0.2856
     11 O          13.0397   41.1596    7.1499 O.2     1  UNL1       -0.2664
     12 N          15.0341   40.9341    8.3648 N.am    1  UNL1       -0.2755
     13 H          15.5029   40.3708    9.0221 H       1  UNL1        0.1554
     14 C          17.1441   42.2212    8.1311 C.ar    1  UNL1        0.1519
     15 C          17.8076   43.3641    7.6685 C.ar    1  UNL1        0.0382
     16 C          17.1239   44.3594    6.9696 C.ar    1  UNL1        0.0032
     17 C          15.7592   44.2240    6.7247 C.ar    1  UNL1        0.0015
     18 C          15.0799   43.0947    7.1813 C.ar    1  UNL1        0.0178
     19 C          15.7513   42.0826    7.8866 C.ar    1  UNL1        0.0851
     20 O          17.9211   41.2768    8.8219 O.3     1  UNL1       -0.4742
     21 C          18.4068   39.2682   10.0388 C.3     1  UNL1        0.0512
     22 C          17.4505   40.4285    9.8598 C.3     1  UNL1        0.2056
     23 C           9.8068   40.3866    8.2525 C.2     1  UNL1        0.2410
     24 O           9.8547   39.8717    7.1046 O.2     1  UNL1       -0.2735
     25 N          10.8621   40.1725    9.1972 N.am    1  UNL1       -0.2803
     26 H          10.9035   40.7833    9.9683 H       1  UNL1        0.1550
     27 C           8.6689   41.2868    8.5972 C.3     1  UNL1        0.1561
     28 C           8.5252   41.4045   10.1020 C.3     1  UNL1        0.0273
     29 CL          7.1542   40.6735    7.8900 Cl      1  UNL1       -0.1052
@<TRIPOS>BOND
     1    21    22    1
     2    22    20    1
     3    14    20    1
     4    15    16   ar
     5    17    18   ar
     6    19    12    1
     7    19    14   ar
     8    10     1    1
     9     1     9   ar
    10     2     3   ar
    11     2    25    1
    12     4     5   ar
    13     6     7   ar
    14     8     9   ar
    15     8     3   ar
    16    27    23    1
    17    27    28    1
    18    27    29    1
    19    12    10   am
    20    25    23   am
    21    14    15   ar
    22    16    17   ar
    23    18    19   ar
    24    10    11    2
    25     1     2   ar
    26     3     4   ar
    27     5     6   ar
    28     7     8   ar
    29    23    24    2
    30    12    13    1
    31    25    26    1
@<TRIPOS>MOLECULE
MolPort-003-082-986 CSSS03437203362 MCULE-5949923303 PubChem-16817414
 29 31 0 0 0
SMALL
GASTEIGER

@<TRIPOS>ATOM
      1 C          11.5558   41.3764    7.3990 C.ar    1  UNL1        0.2119
      2 C          11.4194   40.0304    7.7296 C.ar    1  UNL1        0.0929
      3 C          10.1635   39.6675    7.2853 C.ar    1  UNL1        0.0512
      4 C           9.4915   38.4460    7.2663 C.ar    1  UNL1        0.0044
      5 C           8.2045   38.4185    6.7003 C.ar    1  UNL1        0.0002
      6 C           7.6317   39.5912    6.1624 C.ar    1  UNL1        0.0031
      7 C           8.3418   40.8051    6.1750 C.ar    1  UNL1        0.0375
      8 C           9.6146   40.8028    6.7410 C.ar    1  UNL1        0.1468
      9 O          10.4513   41.8113    6.8182 O.2     1  UNL1       -0.4476
     10 C          12.7300   42.2269    7.6373 C.2     1  UNL1        0.2856
     11 O          12.6628   43.1821    8.4569 O.2     1  UNL1       -0.2664
     12 N          13.9424   41.9517    6.9228 N.am    1  UNL1       -0.2755
     13 H          13.9136   41.1972    6.2910 H       1  UNL1        0.1554
     14 C          16.1939   42.2176    7.9344 C.ar    1  UNL1        0.1519
     15 C          17.3940   42.9338    8.0201 C.ar    1  UNL1        0.0382
     16 C          17.6210   44.0552    7.2218 C.ar    1  UNL1        0.0032
     17 C          16.6438   44.4780    6.3236 C.ar    1  UNL1        0.0015
     18 C          15.4401   43.7802    6.2269 C.ar    1  UNL1        0.0178
     19 C          15.1937   42.6493    7.0222 C.ar    1  UNL1        0.0851
     20 O          16.0630   41.1026    8.7785 O.3     1  UNL1       -0.4742
     21 C          16.6096   39.3134   10.2789 C.3     1  UNL1        0.0512
     22 C          17.0690   40.6144    9.6548 C.3     1  UNL1        0.2056
     23 C          12.4557   38.6791    9.6311 C.2     1  UNL1        0.2410
     24 O          11.7115   39.1675   10.5214 O.2     1  UNL1       -0.2735
     25 N          12.4400   39.1979    8.2959 N.am    1  UNL1       -0.2803
     26 H          13.1986   38.9613    7.7147 H       1  UNL1        0.1550
     27 C          13.4129   37.5964    9.9990 C.3     1  UNL1        0.1561
     28 C          12.8007   36.2356    9.7295 C.3     1  UNL1        0.0273
     29 CL         13.8693   37.7263   11.7153 Cl      1  UNL1       -0.1052
@<TRIPOS>BOND
     1    21    22    1
     2    22    20    1
     3    14    20    1
     4    15    16   ar
     5    17    18   ar
     6    19    12    1
     7    19    14   ar
     8    10     1    1
     9     1     9   ar
    10     2     3   ar
    11     2    25    1
    12     4     5   ar
    13     6     7   ar
    14     8     9   ar
    15     8     3   ar
    16    27    23    1
    17    27    28    1
    18    27    29    1
    19    12    10   am
    20    25    23   am
    21    14    15   ar
    22    16    17   ar
    23    18    19   ar
    24    10    11    2
    25     1     2   ar
    26     3     4   ar
    27     5     6   ar
    28     7     8   ar
    29    23    24    2
    30    12    13    1
    31    25    26    1
@<TRIPOS>MOLECULE
MolPort-003-082-986 CSSS03437203362 MCULE-5949923303 PubChem-16817414
 29 31 0 0 0
SMALL
GASTEIGER

@<TRIPOS>ATOM
      1 C          12.9028   41.7446    7.0112 C.ar    1  UNL1        0.2119
      2 C          14.0581   41.4961    7.7482 C.ar    1  UNL1        0.0929
      3 C          14.9917   42.4023    7.2861 C.ar    1  UNL1        0.0512
      4 C          16.2984   42.6870    7.6806 C.ar    1  UNL1        0.0044
      5 C          16.9744   43.7171    7.0027 C.ar    1  UNL1        0.0002
      6 C          16.3351   44.4373    5.9706 C.ar    1  UNL1        0.0031
      7 C          15.0083   44.1433    5.6087 C.ar    1  UNL1        0.0375
      8 C          14.3629   43.1190    6.2974 C.ar    1  UNL1        0.1468
      9 O          13.1235   42.7156    6.1424 O.2     1  UNL1       -0.4476
     10 C          11.6097   41.0596    7.1436 C.2     1  UNL1        0.2856
     11 O          11.5708   39.8304    7.4193 O.2     1  UNL1       -0.2664
     12 N          10.4037   41.8112    6.9521 N.am    1  UNL1       -0.2755
     13 H          10.5152   42.7632    6.7271 H       1  UNL1        0.1554
     14 C           8.4556   40.6195    5.9783 C.ar    1  UNL1        0.1519
     15 C           7.1288   40.1892    6.1000 C.ar    1  UNL1        0.0382
     16 C           6.3916   40.4482    7.2558 C.ar    1  UNL1        0.0032
     17 C           6.9754   41.1468    8.3102 C.ar    1  UNL1        0.0015
     18 C           8.2946   41.5874    8.2061 C.ar    1  UNL1        0.0178
     19 C           9.0521   41.3361    7.0505 C.ar    1  UNL1        0.0851
     20 O           9.1124   40.3075    4.7766 O.3     1  UNL1       -0.4742
     21 C           9.4269   38.6501    3.0721 C.3     1  UNL1        0.0512
     22 C           9.7540   39.0731    4.4889 C.3     1  UNL1        0.2056
     23 C          15.3901   40.2137    9.5079 C.2     1  UNL1        0.2410
     24 O          16.5101   40.4592    8.9880 O.2     1  UNL1       -0.2735
     25 N          14.1757   40.5719    8.8379 N.am    1  UNL1       -0.2803
     26 H          13.3470   40.1449    9.1544 H       1  UNL1        0.1550
     27 C          15.3374   39.4761   10.8030 C.3     1  UNL1        0.1561
     28 C          15.9716   38.1065   10.6574 C.3     1  UNL1        0.0273
     29 CL         13.6528   39.3080   11.3550 Cl      1  UNL1       -0.1052
@<TRIPOS>BOND
     1    21    22    1
     2    22    20    1
     3    14    20    1
     4    15    16   ar
     5    17    18   ar
     6    19    12    1
     7    19    14   ar
     8    10     1    1
     9     1     9   ar
    10     2     3   ar
    11     2    25    1
    12     4     5   ar
    13     6     7   ar
    14     8     9   ar
    15     8     3   ar
    16    27    23    1
    17    27    28    1
    18    27    29    1
    19    12    10   am
    20    25    23   am
    21    14    15   ar
    22    16    17   ar
    23    18    19   ar
    24    10    11    2
    25     1     2   ar
    26     3     4   ar
    27     5     6   ar
    28     7     8   ar
    29    23    24    2
    30    12    13    1
    31    25    26    1
@<TRIPOS>MOLECULE
MolPort-003-082-986 CSSS03437203362 MCULE-5949923303 PubChem-16817414
 29 31 0 0 0
SMALL
GASTEIGER

@<TRIPOS>ATOM
      1 C          12.9851   41.6390    6.8480 C.ar    1  UNL1        0.2119
      2 C          14.0354   41.4388    7.7403 C.ar    1  UNL1        0.0929
      3 C          15.0111   42.3426    7.3695 C.ar    1  UNL1        0.0512
      4 C          16.2504   42.6647    7.9211 C.ar    1  UNL1        0.0044
      5 C          16.9978   43.6796    7.2976 C.ar    1  UNL1        0.0002
      6 C          16.4924   44.3487    6.1621 C.ar    1  UNL1        0.0031
      7 C          15.2289   44.0184    5.6404 C.ar    1  UNL1        0.0375
      8 C          14.5102   43.0101    6.2786 C.ar    1  UNL1        0.1468
      9 O          13.3072   42.5798    5.9777 O.2     1  UNL1       -0.4476
     10 C          11.6942   40.9374    6.8360 C.2     1  UNL1        0.2856
     11 O          11.6577   39.6795    6.9066 O.2     1  UNL1       -0.2664
     12 N          10.4876   41.7063    6.7410 N.am    1  UNL1       -0.2755
     13 H          10.5974   42.6825    6.6770 H       1  UNL1        0.1554
     14 C           8.1534   41.7824    7.5833 C.ar    1  UNL1        0.1519
     15 C           6.8518   41.2669    7.5598 C.ar    1  UNL1        0.0382
     16 C           6.5096   40.2159    6.7086 C.ar    1  UNL1        0.0032
     17 C           7.4714   39.6626    5.8662 C.ar    1  UNL1        0.0015
     18 C           8.7745   40.1598    5.8783 C.ar    1  UNL1        0.0178
     19 C           9.1375   41.2171    6.7283 C.ar    1  UNL1        0.0851
     20 O           8.3966   42.8415    8.4733 O.3     1  UNL1       -0.4742
     21 C           9.5550   43.9259   10.2714 C.3     1  UNL1        0.0512
     22 C           8.7848   42.6983    9.8323 C.3     1  UNL1        0.2056
     23 C          13.0059   40.5115    9.8841 C.2     1  UNL1        0.2410
     24 O          12.1892   41.4593   10.0240 O.2     1  UNL1       -0.2735
     25 N          14.0187   40.5590    8.8723 N.am    1  UNL1       -0.2803
     26 H          14.7714   39.9308    8.9623 H       1  UNL1        0.1550
     27 C          12.9550   39.3635   10.8347 C.3     1  UNL1        0.1561
     28 C          14.3342   39.0833   11.3992 C.3     1  UNL1        0.0273
     29 CL         12.3265   37.9096   10.0212 Cl      1  UNL1       -0.1052
@<TRIPOS>BOND
     1    21    22    1
     2    22    20    1
     3    14    20    1
     4    15    16   ar
     5    17    18   ar
     6    19    12    1
     7    19    14   ar
     8    10     1    1
     9     1     9   ar
    10     2     3   ar
    11     2    25    1
    12     4     5   ar
    13     6     7   ar
    14     8     9   ar
    15     8     3   ar
    16    27    23    1
    17    27    28    1
    18    27    29    1
    19    12    10   am
    20    25    23   am
    21    14    15   ar
    22    16    17   ar
    23    18    19   ar
    24    10    11    2
    25     1     2   ar
    26     3     4   ar
    27     5     6   ar
    28     7     8   ar
    29    23    24    2
    30    12    13    1
    31    25    26    1
@<TRIPOS>MOLECULE
MolPort-003-082-986 CSSS03437203362 MCULE-5949923303 PubChem-16817414
 29 31 0 0 0
SMALL
GASTEIGER

@<TRIPOS>ATOM
      1 C          13.2357   42.3193    7.4210 C.ar    1  UNL1        0.2119
      2 C          14.3476   41.8243    8.0980 C.ar    1  UNL1        0.0929
      3 C          15.4367   42.4494    7.5240 C.ar    1  UNL1        0.0512
      4 C          16.7992   42.4179    7.8177 C.ar    1  UNL1        0.0044
      5 C          17.6532   43.2172    7.0372 C.ar    1  UNL1        0.0002
      6 C          17.1332   44.0277    6.0051 C.ar    1  UNL1        0.0031
      7 C          15.7513   44.0567    5.7455 C.ar    1  UNL1        0.0375
      8 C          14.9291   43.2557    6.5347 C.ar    1  UNL1        0.1468
      9 O          13.6206   43.1662    6.4824 O.2     1  UNL1       -0.4476
     10 C          11.8282   41.9832    7.6757 C.2     1  UNL1        0.2856
     11 O          11.3257   42.1864    8.8136 O.2     1  UNL1       -0.2664
     12 N          11.0457   41.4220    6.6132 N.am    1  UNL1       -0.2755
     13 H          11.5113   41.2813    5.7572 H       1  UNL1        0.1554
     14 C           9.2848   39.7094    6.9735 C.ar    1  UNL1        0.1519
     15 C           7.9270   39.3680    6.9828 C.ar    1  UNL1        0.0382
     16 C           6.9452   40.3148    6.6893 C.ar    1  UNL1        0.0032
     17 C           7.3116   41.6225    6.3791 C.ar    1  UNL1        0.0015
     18 C           8.6594   41.9807    6.3605 C.ar    1  UNL1        0.0178
     19 C           9.6616   41.0415    6.6532 C.ar    1  UNL1        0.0851
     20 O          10.1949   38.6858    7.2846 O.3     1  UNL1       -0.4742
     21 C          10.6233   39.0312    9.6188 C.3     1  UNL1        0.0512
     22 C          10.2885   38.0244    8.5384 C.3     1  UNL1        0.2056
     23 C          14.1810   39.5232    9.1900 C.2     1  UNL1        0.2410
     24 O          13.7680   38.9458    8.1503 O.2     1  UNL1       -0.2735
     25 N          14.3178   40.9484    9.2327 N.am    1  UNL1       -0.2803
     26 H          14.3988   41.3641   10.1214 H       1  UNL1        0.1550
     27 C          14.4591   38.7107   10.4093 C.3     1  UNL1        0.1561
     28 C          13.7075   39.2714   11.6009 C.3     1  UNL1        0.0273
     29 CL         16.2061   38.6832   10.7533 Cl      1  UNL1       -0.1052
@<TRIPOS>BOND
     1    21    22    1
     2    22    20    1
     3    14    20    1
     4    15    16   ar
     5    17    18   ar
     6    19    12    1
     7    19    14   ar
     8    10     1    1
     9     1     9   ar
    10     2     3   ar
    11     2    25    1
    12     4     5   ar
    13     6     7   ar
    14     8     9   ar
    15     8     3   ar
    16    27    23    1
    17    27    28    1
    18    27    29    1
    19    12    10   am
    20    25    23   am
    21    14    15   ar
    22    16    17   ar
    23    18    19   ar
    24    10    11    2
    25     1     2   ar
    26     3     4   ar
    27     5     6   ar
    28     7     8   ar
    29    23    24    2
    30    12    13    1
    31    25    26    1
@<TRIPOS>MOLECULE
MolPort-003-082-986 CSSS03437203362 MCULE-5949923303 PubChem-16817414
 29 31 0 0 0
SMALL
GASTEIGER

@<TRIPOS>ATOM
      1 C          13.2047   41.7227    6.8750 C.ar    1  UNL1        0.2119
      2 C          14.0809   41.3138    7.8773 C.ar    1  UNL1        0.0929
      3 C          15.2254   42.0644    7.6948 C.ar    1  UNL1        0.0512
      4 C          16.4131   42.1557    8.4192 C.ar    1  UNL1        0.0044
      5 C          17.3856   43.0644    7.9653 C.ar    1  UNL1        0.0002
      6 C          17.1479   43.8588    6.8229 C.ar    1  UNL1        0.0031
      7 C          15.9310   43.7619    6.1245 C.ar    1  UNL1        0.0375
      8 C          14.9858   42.8543    6.5970 C.ar    1  UNL1        0.1468
      9 O          13.7829   42.6387    6.1180 O.2     1  UNL1       -0.4476
     10 C          11.8348   41.2403    6.6524 C.2     1  UNL1        0.2856
     11 O          11.6037   40.3846    5.7564 O.2     1  UNL1       -0.2664
     12 N          10.7754   41.7603    7.4669 N.am    1  UNL1       -0.2755
     13 H          11.0321   42.4345    8.1368 H       1  UNL1        0.1554
     14 C           8.5939   41.4126    8.5999 C.ar    1  UNL1        0.1519
     15 C           7.2447   41.0470    8.5193 C.ar    1  UNL1        0.0382
     16 C           6.6677   40.6898    7.3003 C.ar    1  UNL1        0.0032
     17 C           7.4382   40.6921    6.1397 C.ar    1  UNL1        0.0015
     18 C           8.7851   41.0492    6.2005 C.ar    1  UNL1        0.0178
     19 C           9.3832   41.4116    7.4183 C.ar    1  UNL1        0.0851
     20 O           9.0793   41.7572    9.8720 O.3     1  UNL1       -0.4742
     21 C           8.8677   41.2764   12.2120 C.3     1  UNL1        0.0512
     22 C           8.2763   41.9977   11.0191 C.3     1  UNL1        0.2056
     23 C          14.7025   39.5073    9.5701 C.2     1  UNL1        0.2410
     24 O          15.8113   39.2428    9.0356 O.2     1  UNL1       -0.2735
     25 N          13.7756   40.3963    8.9358 N.am    1  UNL1       -0.2803
     26 H          12.8448   40.3754    9.2557 H       1  UNL1        0.1550
     27 C          14.3297   38.8255   10.8430 C.3     1  UNL1        0.1561
     28 C          13.1160   39.4903   11.4628 C.3     1  UNL1        0.0273
     29 CL         15.6915   38.8607   11.9897 Cl      1  UNL1       -0.1052
@<TRIPOS>BOND
     1    21    22    1
     2    22    20    1
     3    14    20    1
     4    15    16   ar
     5    17    18   ar
     6    19    12    1
     7    19    14   ar
     8    10     1    1
     9     1     9   ar
    10     2     3   ar
    11     2    25    1
    12     4     5   ar
    13     6     7   ar
    14     8     9   ar
    15     8     3   ar
    16    27    23    1
    17    27    28    1
    18    27    29    1
    19    12    10   am
    20    25    23   am
    21    14    15   ar
    22    16    17   ar
    23    18    19   ar
    24    10    11    2
    25     1     2   ar
    26     3     4   ar
    27     5     6   ar
    28     7     8   ar
    29    23    24    2
    30    12    13    1
    31    25    26    1
@<TRIPOS>MOLECULE
MolPort-003-082-986 CSSS03437203362 MCULE-5949923303 PubChem-16817414
 29 31 0 0 0
SMALL
GASTEIGER

@<TRIPOS>ATOM
      1 C          13.9589   35.9997    9.4548 C.ar    1  UNL1        0.2119
      2 C          15.3102   36.3276    9.3768 C.ar    1  UNL1        0.0929
      3 C          15.9386   35.1908    8.9088 C.ar    1  UNL1        0.0512
      4 C          17.2627   34.9259    8.5616 C.ar    1  UNL1        0.0044
      5 C          17.5656   33.6403    8.0788 C.ar    1  UNL1        0.0002
      6 C          16.5521   32.6672    7.9435 C.ar    1  UNL1        0.0031
      7 C          15.2205   32.9693    8.2804 C.ar    1  UNL1        0.0375
      8 C          14.9493   34.2505    8.7550 C.ar    1  UNL1        0.1468
      9 O          13.7787   34.7435    9.0861 O.2     1  UNL1       -0.4476
     10 C          12.8617   36.8819    9.8754 C.2     1  UNL1        0.2856
     11 O          11.9459   36.4404   10.6203 O.2     1  UNL1       -0.2664
     12 N          12.8533   38.2425    9.4231 N.am    1  UNL1       -0.2755
     13 H          13.5955   38.5101    8.8341 H       1  UNL1        0.1554
     14 C          10.8495   39.5747    8.8121 C.ar    1  UNL1        0.1519
     15 C           9.9375   40.5871    9.1345 C.ar    1  UNL1        0.0382
     16 C          10.0311   41.2823   10.3404 C.ar    1  UNL1        0.0032
     17 C          11.0454   40.9730   11.2438 C.ar    1  UNL1        0.0015
     18 C          11.9659   39.9706   10.9387 C.ar    1  UNL1        0.0178
     19 C          11.8877   39.2602    9.7298 C.ar    1  UNL1        0.0851
     20 O          10.6690   38.9332    7.5756 O.3     1  UNL1       -0.4742
     21 C           8.9162   39.0436    5.9426 C.3     1  UNL1        0.0512
     22 C          10.2694   39.5714    6.3709 C.3     1  UNL1        0.2056
     23 C          16.4663   38.0668   10.8445 C.2     1  UNL1        0.2410
     24 O          16.2645   37.4439   11.9199 O.2     1  UNL1       -0.2735
     25 N          15.8745   37.6234    9.6177 N.am    1  UNL1       -0.2803
     26 H          15.8534   38.2665    8.8726 H       1  UNL1        0.1550
     27 C          17.2733   39.3205   10.8726 C.3     1  UNL1        0.1561
     28 C          16.7739   40.2941    9.8229 C.3     1  UNL1        0.0273
     29 CL         18.9944   38.9589   10.5935 Cl      1  UNL1       -0.1052
@<TRIPOS>BOND
     1    21    22    1
     2    22    20    1
     3    14    20    1
     4    15    16   ar
     5    17    18   ar
     6    19    12    1
     7    19    14   ar
     8    10     1    1
     9     1     9   ar
    10     2     3   ar
    11     2    25    1
    12     4     5   ar
    13     6     7   ar
    14     8     9   ar
    15     8     3   ar
    16    27    23    1
    17    27    28    1
    18    27    29    1
    19    12    10   am
    20    25    23   am
    21    14    15   ar
    22    16    17   ar
    23    18    19   ar
    24    10    11    2
    25     1     2   ar
    26     3     4   ar
    27     5     6   ar
    28     7     8   ar
    29    23    24    2
    30    12    13    1
    31    25    26    1
@<TRIPOS>MOLECULE
MolPort-003-082-986 CSSS03437203362 MCULE-5949923303 PubChem-16817414
 29 31 0 0 0
SMALL
GASTEIGER

@<TRIPOS>ATOM
      1 C           6.6742   41.2583    8.7883 C.ar    1  UNL1        0.2119
      2 C           6.5490   41.7948   10.0674 C.ar    1  UNL1        0.0929
      3 C           5.1957   41.7824   10.3411 C.ar    1  UNL1        0.0512
      4 C           4.4652   42.1237   11.4785 C.ar    1  UNL1        0.0044
      5 C           3.0695   41.9588   11.4309 C.ar    1  UNL1        0.0002
      6 C           2.4458   41.4522   10.2704 C.ar    1  UNL1        0.0031
      7 C           3.2101   41.0950    9.1452 C.ar    1  UNL1        0.0375
      8 C           4.5902   41.2679    9.2207 C.ar    1  UNL1        0.1468
      9 O           5.4801   40.9639    8.3049 O.2     1  UNL1       -0.4476
     10 C           7.9224   41.0320    8.0468 C.2     1  UNL1        0.2856
     11 O           7.8847   40.6130    6.8588 O.2     1  UNL1       -0.2664
     12 N           9.1731   41.2932    8.6977 N.am    1  UNL1       -0.2755
     13 H           9.1217   41.6064    9.6297 H       1  UNL1        0.1554
     14 C          11.2382   39.9592    8.3523 C.ar    1  UNL1        0.1519
     15 C          12.5292   39.8626    7.8191 C.ar    1  UNL1        0.0382
     16 C          13.0863   40.9128    7.0888 C.ar    1  UNL1        0.0032
     17 C          12.3552   42.0805    6.8829 C.ar    1  UNL1        0.0015
     18 C          11.0690   42.1972    7.4098 C.ar    1  UNL1        0.0178
     19 C          10.4919   41.1508    8.1475 C.ar    1  UNL1        0.0851
     20 O          10.7671   38.8473    9.0698 O.3     1  UNL1       -0.4742
     21 C          11.6501   36.7512    9.8299 C.3     1  UNL1        0.0512
     22 C          11.4469   38.2179   10.1468 C.3     1  UNL1        0.2056
     23 C           8.0815   41.4041   12.0709 C.2     1  UNL1        0.2410
     24 O           7.3582   40.5084   12.5803 O.2     1  UNL1       -0.2735
     25 N           7.6313   42.1539   10.9364 N.am    1  UNL1       -0.2803
     26 H           8.1081   42.9914   10.7353 H       1  UNL1        0.1550
     27 C           9.3899   41.7297   12.7082 C.3     1  UNL1        0.1561
     28 C          10.5330   41.1701   11.8840 C.3     1  UNL1        0.0273
     29 CL          9.4570   41.0729   14.3619 Cl      1  UNL1       -0.1052
@<TRIPOS>BOND
     1    21    22    1
     2    22    20    1
     3    14    20    1
     4    15    16   ar
     5    17    18   ar
     6    19    12    1
     7    19    14   ar
     8    10     1    1
     9     1     9   ar
    10     2     3   ar
    11     2    25    1
    12     4     5   ar
    13     6     7   ar
    14     8     9   ar
    15     8     3   ar
    16    27    23    1
    17    27    28    1
    18    27    29    1
    19    12    10   am
    20    25    23   am
    21    14    15   ar
    22    16    17   ar
    23    18    19   ar
    24    10    11    2
    25     1     2   ar
    26     3     4   ar
    27     5     6   ar
    28     7     8   ar
    29    23    24    2
    30    12    13    1
    31    25    26    1
@<TRIPOS>MOLECULE
MolPort-003-082-986 CSSS03437203362 MCULE-5949923303 PubChem-16817414
 29 31 0 0 0
SMALL
GASTEIGER

@<TRIPOS>ATOM
      1 C          13.1609   40.7175    8.7776 C.ar    1  UNL1        0.2119
      2 C          14.4105   41.1958    8.3913 C.ar    1  UNL1        0.0929
      3 C          15.3168   40.5773    9.2294 C.ar    1  UNL1        0.0512
      4 C          16.7098   40.5983    9.2845 C.ar    1  UNL1        0.0044
      5 C          17.3355   39.8102   10.2668 C.ar    1  UNL1        0.0002
      6 C          16.5678   39.0207   11.1499 C.ar    1  UNL1        0.0031
      7 C          15.1647   39.0016   11.0568 C.ar    1  UNL1        0.0375
      8 C          14.5719   39.7911   10.0741 C.ar    1  UNL1        0.1468
      9 O          13.2925   39.8865    9.7966 O.2     1  UNL1       -0.4476
     10 C          11.8642   41.0542    8.1740 C.2     1  UNL1        0.2856
     11 O          11.7796   41.9988    7.3439 O.2     1  UNL1       -0.2664
     12 N          10.7070   40.2942    8.5474 N.am    1  UNL1       -0.2755
     13 H          10.8502   39.5806    9.2105 H       1  UNL1        0.1554
     14 C           8.3896   41.1331    8.8462 C.ar    1  UNL1        0.1519
     15 C           7.0837   41.2517    8.3552 C.ar    1  UNL1        0.0382
     16 C           6.7304   40.7197    7.1149 C.ar    1  UNL1        0.0032
     17 C           7.6843   40.0566    6.3461 C.ar    1  UNL1        0.0015
     18 C           8.9894   39.9245    6.8201 C.ar    1  UNL1        0.0178
     19 C           9.3635   40.4534    8.0661 C.ar    1  UNL1        0.0851
     20 O           8.6452   41.7041   10.1038 O.3     1  UNL1       -0.4742
     21 C          10.1936   43.5205   10.3366 C.3     1  UNL1        0.0512
     22 C           8.7402   43.0966   10.3685 C.3     1  UNL1        0.2056
     23 C          15.6439   43.1022    7.2250 C.2     1  UNL1        0.2410
     24 O          16.1462   43.5623    8.2838 O.2     1  UNL1       -0.2735
     25 N          14.6720   42.0509    7.2705 N.am    1  UNL1       -0.2803
     26 H          14.1350   41.9020    6.4589 H       1  UNL1        0.1550
     27 C          16.0183   43.7153    5.9181 C.3     1  UNL1        0.1561
     28 C          17.5222   43.8847    5.8254 C.3     1  UNL1        0.0273
     29 CL         15.2174   45.2931    5.7190 Cl      1  UNL1       -0.1052
@<TRIPOS>BOND
     1    21    22    1
     2    22    20    1
     3    14    20    1
     4    15    16   ar
     5    17    18   ar
     6    19    12    1
     7    19    14   ar
     8    10     1    1
     9     1     9   ar
    10     2     3   ar
    11     2    25    1
    12     4     5   ar
    13     6     7   ar
    14     8     9   ar
    15     8     3   ar
    16    27    23    1
    17    27    28    1
    18    27    29    1
    19    12    10   am
    20    25    23   am
    21    14    15   ar
    22    16    17   ar
    23    18    19   ar
    24    10    11    2
    25     1     2   ar
    26     3     4   ar
    27     5     6   ar
    28     7     8   ar
    29    23    24    2
    30    12    13    1
    31    25    26    1
