@<TRIPOS>MOLECULE
MolPort-006-579-742 ChemDiv-V020-2678 MCULE-3735395336 PubChem-46040706 ZINC000037543492 ZINC37543492
 32 35 0 0 0
SMALL
GASTEIGER

@<TRIPOS>ATOM
      1 C          10.8065   41.2480    7.5127 C.ar    1  UNL1        0.0565
      2 C          11.0563   40.4849    8.6661 C.ar    1  UNL1        0.0150
      3 C          12.3342   40.4362    9.2277 C.ar    1  UNL1        0.0026
      4 C          13.3789   41.1541    8.6443 C.ar    1  UNL1        0.0148
      5 C          13.1528   41.9262    7.4965 C.ar    1  UNL1        0.0516
      6 C          11.8693   41.9690    6.9427 C.ar    1  UNL1        0.0296
      7 C           6.7209   40.8781    6.1343 C.3     1  UNL1        0.0971
      8 C           7.7927   39.8004    6.0183 C.3     1  UNL1        0.0435
      9 C           9.1400   40.4726    5.8032 C.3     1  UNL1        0.1015
     10 C           8.4239   42.1316    7.5102 C.2     1  UNL1        0.3112
     11 O           8.6980   43.0911    8.2817 O.2     1  UNL1       -0.2520
     12 N           7.0518   41.8439    7.1827 N.am    1  UNL1       -0.2596
     13 N           9.4740   41.3106    6.9552 N.am    1  UNL1       -0.2430
     14 C           5.9688   42.6321    7.7589 C.3     1  UNL1        0.1218
     15 C           5.9528   41.2006   11.2741 C.ar    1  UNL1        0.1385
     16 C           4.5956   40.9038   11.4360 C.ar    1  UNL1        0.0369
     17 C           3.6880   41.1632   10.4046 C.ar    1  UNL1        0.0028
     18 C           4.1344   41.7210    9.2039 C.ar    1  UNL1       -0.0024
     19 C           5.4902   42.0177    9.0314 C.ar    1  UNL1        0.0007
     20 C           6.3958   41.7607   10.0653 C.ar    1  UNL1        0.0343
     21 C           8.2273   41.2035   12.2446 C.3     1  UNL1        0.2525
     22 O           6.8349   40.9331   12.3245 O.3     1  UNL1       -0.4714
     23 C          14.0472   43.6706    5.8452 C.2     1  UNL1        0.2311
     24 O          12.9145   43.9556    5.3742 O.2     1  UNL1       -0.2744
     25 N          14.2001   42.6783    6.8691 N.am    1  UNL1       -0.2836
     26 H          15.1185   42.4944    7.1724 H       1  UNL1        0.1549
     27 C          15.2556   44.3510    5.3013 C.3     1  UNL1        0.1182
     28 C          16.4153   44.1506    6.2144 C.ar    1  UNL1        0.0164
     29 C          16.3767   44.2491    7.5944 C.ar    1  UNL1        0.0032
     30 C          17.6105   43.9484    8.1891 C.ar    1  UNL1        0.0072
     31 C          18.6154   43.6022    7.2881 C.ar    1  UNL1        0.0351
     32 S          17.9509   43.6770    5.7441 S.2     1  UNL1       -0.0903
@<TRIPOS>BOND
     1    21    22    1
     2    15    22    1
     3    16    17   ar
     4    18    19   ar
     5    14    19    1
     6    14    12    1
     7     7    12    1
     8     7     8    1
     9     8     9    1
    10     9    13    1
    11    10    12   am
    12     2     3   ar
    13     4     5   ar
    14     5    25    1
    15    27    23    1
    16    27    28    1
    17    28    32   ar
    18    29    30   ar
    19    31    32   ar
    20     6     1   ar
    21    20    15   ar
    22    13    10   am
    23    13     1    1
    24    25    23   am
    25    15    16   ar
    26    17    18   ar
    27    19    20   ar
    28    10    11    2
    29     1     2   ar
    30     3     4   ar
    31     5     6   ar
    32    23    24    2
    33    28    29   ar
    34    30    31   ar
    35    25    26    1
@<TRIPOS>MOLECULE
MolPort-006-579-742 ChemDiv-V020-2678 MCULE-3735395336 PubChem-46040706 ZINC000037543492 ZINC37543492
 32 35 0 0 0
SMALL
GASTEIGER

@<TRIPOS>ATOM
      1 C          10.2891   41.2534   10.2727 C.ar    1  UNL1        0.0565
      2 C          10.6002   41.0025   11.6201 C.ar    1  UNL1        0.0150
      3 C           9.6451   41.1923   12.6212 C.ar    1  UNL1        0.0026
      4 C           8.3639   41.6323   12.2868 C.ar    1  UNL1        0.0148
      5 C           8.0287   41.8845   10.9493 C.ar    1  UNL1        0.0516
      6 C           8.9921   41.6903    9.9544 C.ar    1  UNL1        0.0296
      7 C          13.2560   41.2147    7.1224 C.3     1  UNL1        0.0971
      8 C          11.9233   41.9529    7.0710 C.3     1  UNL1        0.0435
      9 C          10.8874   41.1449    7.8374 C.3     1  UNL1        0.1015
     10 C          12.6638   40.7399    9.5283 C.2     1  UNL1        0.3112
     11 O          13.0120   40.3238   10.6670 O.2     1  UNL1       -0.2520
     12 N          13.6548   40.9366    8.5026 N.am    1  UNL1       -0.2596
     13 N          11.2784   41.0292    9.2426 N.am    1  UNL1       -0.2430
     14 C          15.0658   40.6891    8.7747 C.3     1  UNL1        0.1218
     15 C          16.2034   43.7531    6.8448 C.ar    1  UNL1        0.1385
     16 C          17.4399   44.0052    7.4478 C.ar    1  UNL1        0.0369
     17 C          17.9061   43.1798    8.4754 C.ar    1  UNL1        0.0028
     18 C          17.1366   42.0957    8.9052 C.ar    1  UNL1       -0.0024
     19 C          15.9006   41.8334    8.3057 C.ar    1  UNL1        0.0007
     20 C          15.4345   42.6621    7.2804 C.ar    1  UNL1        0.0343
     21 C          14.3892   44.7594    5.4990 C.3     1  UNL1        0.2525
     22 O          15.7631   44.5982    5.8226 O.3     1  UNL1       -0.4714
     23 C           5.4698   41.7399   10.9269 C.2     1  UNL1        0.2311
     24 O           5.4203   40.6961   11.6298 O.2     1  UNL1       -0.2744
     25 N           6.7229   42.3365   10.5663 N.am    1  UNL1       -0.2836
     26 H           6.6826   43.1389    9.9972 H       1  UNL1        0.1549
     27 C           4.2028   42.3450   10.4294 C.3     1  UNL1        0.1182
     28 C           4.4640   43.1589    9.2094 C.ar    1  UNL1        0.0164
     29 C           3.6952   44.2250    8.7760 C.ar    1  UNL1        0.0032
     30 C           4.2215   44.8353    7.6285 C.ar    1  UNL1        0.0072
     31 C           5.4049   44.2652    7.1637 C.ar    1  UNL1        0.0351
     32 S           5.7863   42.9922    8.1959 S.2     1  UNL1       -0.0903
@<TRIPOS>BOND
     1    21    22    1
     2    15    22    1
     3    16    17   ar
     4    18    19   ar
     5    14    19    1
     6    14    12    1
     7     7    12    1
     8     7     8    1
     9     8     9    1
    10     9    13    1
    11    10    12   am
    12     2     3   ar
    13     4     5   ar
    14     5    25    1
    15    27    23    1
    16    27    28    1
    17    28    32   ar
    18    29    30   ar
    19    31    32   ar
    20     6     1   ar
    21    20    15   ar
    22    13    10   am
    23    13     1    1
    24    25    23   am
    25    15    16   ar
    26    17    18   ar
    27    19    20   ar
    28    10    11    2
    29     1     2   ar
    30     3     4   ar
    31     5     6   ar
    32    23    24    2
    33    28    29   ar
    34    30    31   ar
    35    25    26    1
@<TRIPOS>MOLECULE
MolPort-006-579-742 ChemDiv-V020-2678 MCULE-3735395336 PubChem-46040706 ZINC000037543492 ZINC37543492
 32 35 0 0 0
SMALL
GASTEIGER

@<TRIPOS>ATOM
      1 C          10.4873   41.2349   10.8503 C.ar    1  UNL1        0.0565
      2 C          10.5517   41.1036   12.2480 C.ar    1  UNL1        0.0150
      3 C           9.4124   41.2831   13.0357 C.ar    1  UNL1        0.0026
      4 C           8.1919   41.5928   12.4345 C.ar    1  UNL1        0.0148
      5 C           8.1021   41.7241   11.0417 C.ar    1  UNL1        0.0516
      6 C           9.2486   41.5412   10.2621 C.ar    1  UNL1        0.0296
      7 C          13.7613   40.0364    8.2864 C.3     1  UNL1        0.0971
      8 C          13.1616   39.1925    9.4052 C.3     1  UNL1        0.0435
      9 C          12.7109   40.1164   10.5262 C.3     1  UNL1        0.1015
     10 C          11.8564   41.6254    8.7454 C.2     1  UNL1        0.3112
     11 O          11.1794   42.6322    8.4001 O.2     1  UNL1       -0.2520
     12 N          12.8224   41.0649    7.8369 N.am    1  UNL1       -0.2596
     13 N          11.6680   41.0220   10.0434 N.am    1  UNL1       -0.2430
     14 C          13.0065   41.6301    6.5055 C.3     1  UNL1        0.1218
     15 C          16.2413   43.4666    7.2604 C.ar    1  UNL1        0.1385
     16 C          16.0563   44.6454    6.5307 C.ar    1  UNL1        0.0369
     17 C          14.8821   44.8462    5.7988 C.ar    1  UNL1        0.0028
     18 C          13.8850   43.8674    5.7940 C.ar    1  UNL1       -0.0024
     19 C          14.0593   42.6871    6.5237 C.ar    1  UNL1        0.0007
     20 C          15.2359   42.4867    7.2522 C.ar    1  UNL1        0.0343
     21 C          17.8552   42.0271    8.4597 C.3     1  UNL1        0.2525
     22 O          17.4272   43.2937    7.9791 O.3     1  UNL1       -0.4714
     23 C           6.6405   43.1007    9.4486 C.2     1  UNL1        0.2311
     24 O           7.5615   43.8975    9.1279 O.2     1  UNL1       -0.2744
     25 N           6.8660   42.0403   10.3873 N.am    1  UNL1       -0.2836
     26 H           6.0928   41.4710   10.6048 H       1  UNL1        0.1549
     27 C           5.2806   43.2867    8.8698 C.3     1  UNL1        0.1182
     28 C           4.2709   42.5459    9.6764 C.ar    1  UNL1        0.0164
     29 C           3.1753   41.8708    9.1671 C.ar    1  UNL1        0.0032
     30 C           2.4363   41.2172   10.1636 C.ar    1  UNL1        0.0072
     31 C           2.9495   41.3629   11.4507 C.ar    1  UNL1        0.0351
     32 S           4.3313   42.3159   11.3338 S.2     1  UNL1       -0.0903
@<TRIPOS>BOND
     1    21    22    1
     2    15    22    1
     3    16    17   ar
     4    18    19   ar
     5    14    19    1
     6    14    12    1
     7     7    12    1
     8     7     8    1
     9     8     9    1
    10     9    13    1
    11    10    12   am
    12     2     3   ar
    13     4     5   ar
    14     5    25    1
    15    27    23    1
    16    27    28    1
    17    28    32   ar
    18    29    30   ar
    19    31    32   ar
    20     6     1   ar
    21    20    15   ar
    22    13    10   am
    23    13     1    1
    24    25    23   am
    25    15    16   ar
    26    17    18   ar
    27    19    20   ar
    28    10    11    2
    29     1     2   ar
    30     3     4   ar
    31     5     6   ar
    32    23    24    2
    33    28    29   ar
    34    30    31   ar
    35    25    26    1
@<TRIPOS>MOLECULE
MolPort-006-579-742 ChemDiv-V020-2678 MCULE-3735395336 PubChem-46040706 ZINC000037543492 ZINC37543492
 32 35 0 0 0
SMALL
GASTEIGER

@<TRIPOS>ATOM
      1 C          11.6871   40.5184   10.2106 C.ar    1  UNL1        0.0565
      2 C          12.3502   39.6130   11.0566 C.ar    1  UNL1        0.0150
      3 C          13.7094   39.3404   10.8863 C.ar    1  UNL1        0.0026
      4 C          14.4245   39.9734    9.8690 C.ar    1  UNL1        0.0148
      5 C          13.7858   40.8841    9.0159 C.ar    1  UNL1        0.0516
      6 C          12.4248   41.1508    9.1956 C.ar    1  UNL1        0.0296
      7 C           7.6584   42.0060   10.7448 C.3     1  UNL1        0.0971
      8 C           8.8922   42.5145   11.4816 C.3     1  UNL1        0.0435
      9 C           9.8456   41.3497   11.6999 C.3     1  UNL1        0.1015
     10 C           9.2882   40.6453    9.3822 C.2     1  UNL1        0.3112
     11 O           9.5155   39.9151    8.3791 O.2     1  UNL1       -0.2520
     12 N           8.0259   41.3272    9.5016 N.am    1  UNL1       -0.2596
     13 N          10.2859   40.8116   10.4125 N.am    1  UNL1       -0.2430
     14 C           7.0147   41.2081    8.4578 C.3     1  UNL1        0.1218
     15 C           3.8689   43.2468    9.0527 C.ar    1  UNL1        0.1385
     16 C           3.1519   42.3923    9.8965 C.ar    1  UNL1        0.0369
     17 C           3.6901   41.1589   10.2757 C.ar    1  UNL1        0.0028
     18 C           4.9508   40.7739    9.8126 C.ar    1  UNL1       -0.0024
     19 C           5.6769   41.6233    8.9715 C.ar    1  UNL1        0.0007
     20 C           5.1353   42.8549    8.5906 C.ar    1  UNL1        0.0343
     21 C           3.8051   45.2613    7.6199 C.3     1  UNL1        0.2525
     22 O           3.3026   44.4714    8.6886 O.3     1  UNL1       -0.4714
     23 C          13.9617   42.5686    7.0921 C.2     1  UNL1        0.2311
     24 O          12.7651   42.9509    7.1815 O.2     1  UNL1       -0.2744
     25 N          14.4867   41.5551    7.9602 N.am    1  UNL1       -0.2836
     26 H          15.4248   41.2931    7.8166 H       1  UNL1        0.1549
     27 C          14.8378   43.1541    6.0393 C.3     1  UNL1        0.1182
     28 C          16.1459   43.5610    6.6243 C.ar    1  UNL1        0.0164
     29 C          16.4202   43.6741    7.9762 C.ar    1  UNL1        0.0032
     30 C          17.7563   44.0179    8.2263 C.ar    1  UNL1        0.0072
     31 C          18.5378   44.1636    7.0820 C.ar    1  UNL1        0.0351
     32 S          17.5460   43.8619    5.7566 S.2     1  UNL1       -0.0903
@<TRIPOS>BOND
     1    21    22    1
     2    15    22    1
     3    16    17   ar
     4    18    19   ar
     5    14    19    1
     6    14    12    1
     7     7    12    1
     8     7     8    1
     9     8     9    1
    10     9    13    1
    11    10    12   am
    12     2     3   ar
    13     4     5   ar
    14     5    25    1
    15    27    23    1
    16    27    28    1
    17    28    32   ar
    18    29    30   ar
    19    31    32   ar
    20     6     1   ar
    21    20    15   ar
    22    13    10   am
    23    13     1    1
    24    25    23   am
    25    15    16   ar
    26    17    18   ar
    27    19    20   ar
    28    10    11    2
    29     1     2   ar
    30     3     4   ar
    31     5     6   ar
    32    23    24    2
    33    28    29   ar
    34    30    31   ar
    35    25    26    1
@<TRIPOS>MOLECULE
MolPort-006-579-742 ChemDiv-V020-2678 MCULE-3735395336 PubChem-46040706 ZINC000037543492 ZINC37543492
 32 35 0 0 0
SMALL
GASTEIGER

@<TRIPOS>ATOM
      1 C          11.5174   40.2893    9.5968 C.ar    1  UNL1        0.0565
      2 C          11.6434   39.1420   10.3987 C.ar    1  UNL1        0.0150
      3 C          12.9007   38.6077   10.6889 C.ar    1  UNL1        0.0026
      4 C          14.0498   39.2170   10.1834 C.ar    1  UNL1        0.0148
      5 C          13.9495   40.3650    9.3853 C.ar    1  UNL1        0.0516
      6 C          12.6858   40.8926    9.1016 C.ar    1  UNL1        0.0296
      7 C           7.4155   41.3579    8.7248 C.3     1  UNL1        0.0971
      8 C           8.2676   40.3903    7.9116 C.3     1  UNL1        0.0435
      9 C           9.7130   40.8624    7.9488 C.3     1  UNL1        0.1015
     10 C           9.3397   41.3562   10.3562 C.2     1  UNL1        0.3112
     11 O           9.7972   41.6632   11.4909 O.2     1  UNL1       -0.2520
     12 N           7.9337   41.5059   10.0852 N.am    1  UNL1       -0.2596
     13 N          10.2120   40.8477    9.3241 N.am    1  UNL1       -0.2430
     14 C           7.0233   41.9807   11.1205 C.3     1  UNL1        0.1218
     15 C           3.6577   42.6863    9.5140 C.ar    1  UNL1        0.1385
     16 C           2.9586   41.5177    9.8332 C.ar    1  UNL1        0.0369
     17 C           3.5764   40.5047   10.5726 C.ar    1  UNL1        0.0028
     18 C           4.8987   40.6561   10.9976 C.ar    1  UNL1       -0.0024
     19 C           5.6046   41.8226   10.6865 C.ar    1  UNL1        0.0007
     20 C           4.9861   42.8333    9.9440 C.ar    1  UNL1        0.0343
     21 C           3.7208   44.6999    8.0799 C.3     1  UNL1        0.2525
     22 O           3.0140   43.6793    8.7707 O.3     1  UNL1       -0.4714
     23 C          16.4507   40.9230    9.3393 C.2     1  UNL1        0.2311
     24 O          16.7280   40.2329   10.3556 O.2     1  UNL1       -0.2744
     25 N          15.1067   41.0198    8.8486 N.am    1  UNL1       -0.2836
     26 H          14.9640   41.5949    8.0624 H       1  UNL1        0.1549
     27 C          17.5342   41.6835    8.6562 C.3     1  UNL1        0.1182
     28 C          16.9504   42.7006    7.7377 C.ar    1  UNL1        0.0164
     29 C          15.6420   42.7179    7.2868 C.ar    1  UNL1        0.0032
     30 C          15.3664   43.8317    6.4808 C.ar    1  UNL1        0.0072
     31 C          16.4444   44.6968    6.3049 C.ar    1  UNL1        0.0351
     32 S          17.7439   44.0579    7.1618 S.2     1  UNL1       -0.0903
@<TRIPOS>BOND
     1    21    22    1
     2    15    22    1
     3    16    17   ar
     4    18    19   ar
     5    14    19    1
     6    14    12    1
     7     7    12    1
     8     7     8    1
     9     8     9    1
    10     9    13    1
    11    10    12   am
    12     2     3   ar
    13     4     5   ar
    14     5    25    1
    15    27    23    1
    16    27    28    1
    17    28    32   ar
    18    29    30   ar
    19    31    32   ar
    20     6     1   ar
    21    20    15   ar
    22    13    10   am
    23    13     1    1
    24    25    23   am
    25    15    16   ar
    26    17    18   ar
    27    19    20   ar
    28    10    11    2
    29     1     2   ar
    30     3     4   ar
    31     5     6   ar
    32    23    24    2
    33    28    29   ar
    34    30    31   ar
    35    25    26    1
@<TRIPOS>MOLECULE
MolPort-006-579-742 ChemDiv-V020-2678 MCULE-3735395336 PubChem-46040706 ZINC000037543492 ZINC37543492
 32 35 0 0 0
SMALL
GASTEIGER

@<TRIPOS>ATOM
      1 C           9.7421   41.3168    7.8784 C.ar    1  UNL1        0.0565
      2 C           9.7763   41.0521    6.4986 C.ar    1  UNL1        0.0150
      3 C           8.6173   41.1440    5.7246 C.ar    1  UNL1        0.0026
      4 C           7.4088   41.5061    6.3207 C.ar    1  UNL1        0.0148
      5 C           7.3510   41.7797    7.6943 C.ar    1  UNL1        0.0516
      6 C           8.5174   41.6857    8.4601 C.ar    1  UNL1        0.0296
      7 C          13.1656   40.5169   10.4020 C.3     1  UNL1        0.0971
      8 C          11.7074   40.3460   10.8121 C.3     1  UNL1        0.0435
      9 C          10.8759   41.4123   10.1158 C.3     1  UNL1        0.1015
     10 C          12.2487   40.9591    8.0937 C.2     1  UNL1        0.3112
     11 O          12.4529   41.1068    6.8578 O.2     1  UNL1       -0.2520
     12 N          13.3126   40.4964    8.9462 N.am    1  UNL1       -0.2596
     13 N          10.9532   41.2429    8.6645 N.am    1  UNL1       -0.2430
     14 C          14.6198   40.1656    8.3912 C.3     1  UNL1        0.1218
     15 C          15.8650   43.5867    7.3181 C.ar    1  UNL1        0.1385
     16 C          17.0282   43.7012    8.0863 C.ar    1  UNL1        0.0369
     17 C          17.4105   42.6682    8.9473 C.ar    1  UNL1        0.0028
     18 C          16.6301   41.5132    9.0438 C.ar    1  UNL1       -0.0024
     19 C          15.4674   41.3881    8.2768 C.ar    1  UNL1        0.0007
     20 C          15.0849   42.4238    7.4188 C.ar    1  UNL1        0.0343
     21 C          15.0033   44.4271    5.1579 C.3     1  UNL1        0.2525
     22 O          15.5075   44.6378    6.4693 O.3     1  UNL1       -0.4714
     23 C           5.4400   43.4068    8.2137 C.2     1  UNL1        0.2311
     24 O           5.8985   44.3351    7.4967 O.2     1  UNL1       -0.2744
     25 N           6.1286   42.1556    8.3427 N.am    1  UNL1       -0.2836
     26 H           5.7200   41.4858    8.9375 H       1  UNL1        0.1549
     27 C           4.1770   43.6270    8.9722 C.3     1  UNL1        0.1182
     28 C           3.8674   42.4382    9.8148 C.ar    1  UNL1        0.0164
     29 C           3.0070   41.4110    9.4684 C.ar    1  UNL1        0.0032
     30 C           2.9622   40.3982   10.4371 C.ar    1  UNL1        0.0072
     31 C           3.7901   40.6151   11.5365 C.ar    1  UNL1        0.0351
     32 S           4.5760   42.0823   11.2895 S.2     1  UNL1       -0.0903
@<TRIPOS>BOND
     1    21    22    1
     2    15    22    1
     3    16    17   ar
     4    18    19   ar
     5    14    19    1
     6    14    12    1
     7     7    12    1
     8     7     8    1
     9     8     9    1
    10     9    13    1
    11    10    12   am
    12     2     3   ar
    13     4     5   ar
    14     5    25    1
    15    27    23    1
    16    27    28    1
    17    28    32   ar
    18    29    30   ar
    19    31    32   ar
    20     6     1   ar
    21    20    15   ar
    22    13    10   am
    23    13     1    1
    24    25    23   am
    25    15    16   ar
    26    17    18   ar
    27    19    20   ar
    28    10    11    2
    29     1     2   ar
    30     3     4   ar
    31     5     6   ar
    32    23    24    2
    33    28    29   ar
    34    30    31   ar
    35    25    26    1
@<TRIPOS>MOLECULE
MolPort-006-579-742 ChemDiv-V020-2678 MCULE-3735395336 PubChem-46040706 ZINC000037543492 ZINC37543492
 32 35 0 0 0
SMALL
GASTEIGER

@<TRIPOS>ATOM
      1 C          12.2592   40.2330   10.1507 C.ar    1  UNL1        0.0565
      2 C          12.4926   38.9317   10.6276 C.ar    1  UNL1        0.0150
      3 C          13.7343   38.3176   10.4496 C.ar    1  UNL1        0.0026
      4 C          14.7608   38.9994    9.7950 C.ar    1  UNL1        0.0148
      5 C          14.5532   40.2999    9.3150 C.ar    1  UNL1        0.0516
      6 C          13.3065   40.9062    9.4994 C.ar    1  UNL1        0.0296
      7 C           8.6707   42.3429   11.3338 C.3     1  UNL1        0.0971
      8 C           9.4462   41.3622   12.2058 C.3     1  UNL1        0.0435
      9 C          10.0366   40.2789   11.3164 C.3     1  UNL1        0.1015
     10 C          10.5878   42.0963    9.7126 C.2     1  UNL1        0.3112
     11 O          11.1850   42.4914    8.6742 O.2     1  UNL1       -0.2520
     12 N           9.5111   42.8783   10.2621 N.am    1  UNL1       -0.2596
     13 N          10.9777   40.8678   10.3632 N.am    1  UNL1       -0.2430
     14 C           9.1213   44.1421    9.6482 C.3     1  UNL1        0.1218
     15 C           6.9463   42.6700    6.9081 C.ar    1  UNL1        0.1385
     16 C           5.8417   43.5267    6.9540 C.ar    1  UNL1        0.0369
     17 C           5.8047   44.5831    7.8691 C.ar    1  UNL1        0.0028
     18 C           6.8747   44.7886    8.7437 C.ar    1  UNL1       -0.0024
     19 C           7.9852   43.9394    8.7027 C.ar    1  UNL1        0.0007
     20 C           8.0187   42.8813    7.7891 C.ar    1  UNL1        0.0343
     21 C           6.6367   40.2827    6.3423 C.3     1  UNL1        0.2525
     22 O           6.9522   41.6209    5.9848 O.3     1  UNL1       -0.4714
     23 C          16.9488   41.1730    9.0536 C.2     1  UNL1        0.2311
     24 O          17.3647   40.6512   10.1216 O.2     1  UNL1       -0.2744
     25 N          15.5833   41.0329    8.6385 N.am    1  UNL1       -0.2836
     26 H          15.3268   41.4865    7.8032 H       1  UNL1        0.1549
     27 C          17.8847   41.9828    8.2246 C.3     1  UNL1        0.1182
     28 C          17.1249   42.9521    7.3867 C.ar    1  UNL1        0.0164
     29 C          15.7476   43.0868    7.3645 C.ar    1  UNL1        0.0032
     30 C          15.3228   44.1243    6.5224 C.ar    1  UNL1        0.0072
     31 C          16.3561   44.8145    5.8920 C.ar    1  UNL1        0.0351
     32 S          17.8029   44.1169    6.3933 S.2     1  UNL1       -0.0903
@<TRIPOS>BOND
     1    21    22    1
     2    15    22    1
     3    16    17   ar
     4    18    19   ar
     5    14    19    1
     6    14    12    1
     7     7    12    1
     8     7     8    1
     9     8     9    1
    10     9    13    1
    11    10    12   am
    12     2     3   ar
    13     4     5   ar
    14     5    25    1
    15    27    23    1
    16    27    28    1
    17    28    32   ar
    18    29    30   ar
    19    31    32   ar
    20     6     1   ar
    21    20    15   ar
    22    13    10   am
    23    13     1    1
    24    25    23   am
    25    15    16   ar
    26    17    18   ar
    27    19    20   ar
    28    10    11    2
    29     1     2   ar
    30     3     4   ar
    31     5     6   ar
    32    23    24    2
    33    28    29   ar
    34    30    31   ar
    35    25    26    1
@<TRIPOS>MOLECULE
MolPort-006-579-742 ChemDiv-V020-2678 MCULE-3735395336 PubChem-46040706 ZINC000037543492 ZINC37543492
 32 35 0 0 0
SMALL
GASTEIGER

@<TRIPOS>ATOM
      1 C          11.8913   40.6279   10.0178 C.ar    1  UNL1        0.0565
      2 C          12.5367   39.5159   10.5854 C.ar    1  UNL1        0.0150
      3 C          13.8526   39.2005   10.2400 C.ar    1  UNL1        0.0026
      4 C          14.5421   39.9963    9.3244 C.ar    1  UNL1        0.0148
      5 C          13.9210   41.1133    8.7488 C.ar    1  UNL1        0.0516
      6 C          12.6033   41.4211    9.1022 C.ar    1  UNL1        0.0296
      7 C           8.1044   41.9565   11.6373 C.3     1  UNL1        0.0971
      8 C           9.2344   41.3226   12.4404 C.3     1  UNL1        0.0435
      9 C           9.9421   40.3000   11.5649 C.3     1  UNL1        0.1015
     10 C           9.7444   41.9545    9.7204 C.2     1  UNL1        0.3112
     11 O          10.0496   42.3328    8.5564 O.2     1  UNL1       -0.2520
     12 N           8.5995   42.5234   10.3824 N.am    1  UNL1       -0.2596
     13 N          10.5374   40.9590   10.4021 N.am    1  UNL1       -0.2430
     14 C           7.8031   43.5580    9.7331 C.3     1  UNL1        0.1218
     15 C           6.6365   41.3126    6.9041 C.ar    1  UNL1        0.1385
     16 C           6.4498   42.2471    5.8804 C.ar    1  UNL1        0.0369
     17 C           6.7066   43.6027    6.1060 C.ar    1  UNL1        0.0028
     18 C           7.1530   44.0309    7.3589 C.ar    1  UNL1       -0.0024
     19 C           7.3461   43.1034    8.3876 C.ar    1  UNL1        0.0007
     20 C           7.0854   41.7484    8.1609 C.ar    1  UNL1        0.0343
     21 C           7.3900   39.0186    6.3703 C.3     1  UNL1        0.2525
     22 O           6.3679   39.9651    6.6488 O.3     1  UNL1       -0.4714
     23 C          14.0365   42.5348    6.6192 C.2     1  UNL1        0.2311
     24 O          12.8429   42.3136    6.2839 O.2     1  UNL1       -0.2744
     25 N          14.5967   41.9555    7.8053 N.am    1  UNL1       -0.2836
     26 H          15.5424   42.1566    7.9909 H       1  UNL1        0.1549
     27 C          14.8939   43.3846    5.7464 C.3     1  UNL1        0.1182
     28 C          16.1709   43.7126    6.4397 C.ar    1  UNL1        0.0164
     29 C          16.3201   43.8937    7.8036 C.ar    1  UNL1        0.0032
     30 C          17.6519   44.1333    8.1712 C.ar    1  UNL1        0.0072
     31 C          18.5527   44.1295    7.1082 C.ar    1  UNL1        0.0351
     32 S          17.6720   43.8269    5.7067 S.2     1  UNL1       -0.0903
@<TRIPOS>BOND
     1    21    22    1
     2    15    22    1
     3    16    17   ar
     4    18    19   ar
     5    14    19    1
     6    14    12    1
     7     7    12    1
     8     7     8    1
     9     8     9    1
    10     9    13    1
    11    10    12   am
    12     2     3   ar
    13     4     5   ar
    14     5    25    1
    15    27    23    1
    16    27    28    1
    17    28    32   ar
    18    29    30   ar
    19    31    32   ar
    20     6     1   ar
    21    20    15   ar
    22    13    10   am
    23    13     1    1
    24    25    23   am
    25    15    16   ar
    26    17    18   ar
    27    19    20   ar
    28    10    11    2
    29     1     2   ar
    30     3     4   ar
    31     5     6   ar
    32    23    24    2
    33    28    29   ar
    34    30    31   ar
    35    25    26    1
@<TRIPOS>MOLECULE
MolPort-006-579-742 ChemDiv-V020-2678 MCULE-3735395336 PubChem-46040706 ZINC000037543492 ZINC37543492
 32 35 0 0 0
SMALL
GASTEIGER

@<TRIPOS>ATOM
      1 C          12.1048   37.9514    9.4317 C.ar    1  UNL1        0.0565
      2 C          11.2870   37.0394   10.1207 C.ar    1  UNL1        0.0150
      3 C          11.7676   35.7779   10.4787 C.ar    1  UNL1        0.0026
      4 C          13.0751   35.4134   10.1553 C.ar    1  UNL1        0.0148
      5 C          13.9111   36.3080    9.4728 C.ar    1  UNL1        0.0516
      6 C          13.4204   37.5691    9.1198 C.ar    1  UNL1        0.0296
      7 C          11.0745   42.1027    8.7731 C.3     1  UNL1        0.0971
      8 C          11.3019   41.4547   10.1340 C.3     1  UNL1        0.0435
      9 C          10.8238   40.0121   10.0743 C.3     1  UNL1        0.1015
     10 C          11.8764   39.9068    7.8249 C.2     1  UNL1        0.3112
     11 O          12.2601   39.2328    6.8301 O.2     1  UNL1       -0.2520
     12 N          11.7139   41.3323    7.7059 N.am    1  UNL1       -0.2596
     13 N          11.6042   39.2636    9.0886 N.am    1  UNL1       -0.2430
     14 C          12.0182   42.0134    6.4530 C.3     1  UNL1        0.1218
     15 C          15.6250   42.6798    7.4294 C.ar    1  UNL1        0.1385
     16 C          15.9399   43.7449    6.5793 C.ar    1  UNL1        0.0369
     17 C          14.9822   44.2492    5.6943 C.ar    1  UNL1        0.0028
     18 C          13.7024   43.6901    5.6557 C.ar    1  UNL1       -0.0024
     19 C          13.3771   42.6273    6.5046 C.ar    1  UNL1        0.0007
     20 C          14.3373   42.1221    7.3866 C.ar    1  UNL1        0.0343
     21 C          17.9874   42.1922    7.9740 C.3     1  UNL1        0.2525
     22 O          16.6047   42.1955    8.3004 O.3     1  UNL1       -0.4714
     23 C          15.7316   34.7000    8.6545 C.2     1  UNL1        0.2311
     24 O          14.9523   33.7187    8.5293 O.2     1  UNL1       -0.2744
     25 N          15.2603   35.9704    9.1240 N.am    1  UNL1       -0.2836
     26 H          15.9322   36.6841    9.2162 H       1  UNL1        0.1549
     27 C          17.1783   34.5269    8.3445 C.3     1  UNL1        0.1182
     28 C          17.4816   35.0560    6.9855 C.ar    1  UNL1        0.0164
     29 C          16.5677   35.1928    5.9551 C.ar    1  UNL1        0.0032
     30 C          17.1313   35.7757    4.8111 C.ar    1  UNL1        0.0072
     31 C          18.4780   36.1097    4.9384 C.ar    1  UNL1        0.0351
     32 S          18.9586   35.6690    6.4895 S.2     1  UNL1       -0.0903
@<TRIPOS>BOND
     1    21    22    1
     2    15    22    1
     3    16    17   ar
     4    18    19   ar
     5    14    19    1
     6    14    12    1
     7     7    12    1
     8     7     8    1
     9     8     9    1
    10     9    13    1
    11    10    12   am
    12     2     3   ar
    13     4     5   ar
    14     5    25    1
    15    27    23    1
    16    27    28    1
    17    28    32   ar
    18    29    30   ar
    19    31    32   ar
    20     6     1   ar
    21    20    15   ar
    22    13    10   am
    23    13     1    1
    24    25    23   am
    25    15    16   ar
    26    17    18   ar
    27    19    20   ar
    28    10    11    2
    29     1     2   ar
    30     3     4   ar
    31     5     6   ar
    32    23    24    2
    33    28    29   ar
    34    30    31   ar
    35    25    26    1
@<TRIPOS>MOLECULE
MolPort-006-579-742 ChemDiv-V020-2678 MCULE-3735395336 PubChem-46040706 ZINC000037543492 ZINC37543492
 32 35 0 0 0
SMALL
GASTEIGER

@<TRIPOS>ATOM
      1 C          10.1118   41.0655   10.8907 C.ar    1  UNL1        0.0565
      2 C          10.2900   41.0107   12.2837 C.ar    1  UNL1        0.0150
      3 C           9.2572   41.3738   13.1508 C.ar    1  UNL1        0.0026
      4 C           8.0302   41.7933   12.6353 C.ar    1  UNL1        0.0148
      5 C           7.8273   41.8513   11.2495 C.ar    1  UNL1        0.0516
      6 C           8.8676   41.4845   10.3899 C.ar    1  UNL1        0.0296
      7 C          12.8566   39.5624    7.9014 C.3     1  UNL1        0.0971
      8 C          11.8287   38.7270    8.6557 C.3     1  UNL1        0.0435
      9 C          11.6789   39.2887   10.0611 C.3     1  UNL1        0.1015
     10 C          11.7582   41.5420    9.0145 C.2     1  UNL1        0.3112
     11 O          11.6145   42.7920    9.1031 O.2     1  UNL1       -0.2520
     12 N          12.4990   40.9813    7.9148 N.am    1  UNL1       -0.2596
     13 N          11.1799   40.6630   10.0033 N.am    1  UNL1       -0.2430
     14 C          13.0613   41.8424    6.8811 C.3     1  UNL1        0.1218
     15 C          16.5306   41.9251    8.4183 C.ar    1  UNL1        0.1385
     16 C          16.9907   43.1689    7.9738 C.ar    1  UNL1        0.0369
     17 C          16.1749   43.9815    7.1807 C.ar    1  UNL1        0.0028
     18 C          14.8924   43.5535    6.8284 C.ar    1  UNL1       -0.0024
     19 C          14.4223   42.3130    7.2713 C.ar    1  UNL1        0.0007
     20 C          15.2410   41.5003    8.0615 C.ar    1  UNL1        0.0343
     21 C          16.8891   40.0603   10.0023 C.3     1  UNL1        0.2525
     22 O          17.3708   41.1341    9.2066 O.3     1  UNL1       -0.4714
     23 C           5.3093   41.6288   10.8259 C.2     1  UNL1        0.2311
     24 O           5.1895   40.5601   11.4813 O.2     1  UNL1       -0.2744
     25 N           6.5808   42.2760   10.6820 N.am    1  UNL1       -0.2836
     26 H           6.6000   43.0961   10.1377 H       1  UNL1        0.1549
     27 C           4.1132   42.2115   10.1560 C.3     1  UNL1        0.1182
     28 C           4.5296   43.0670    9.0097 C.ar    1  UNL1        0.0164
     29 C           3.9177   44.2474    8.6254 C.ar    1  UNL1        0.0032
     30 C           4.5687   44.8635    7.5470 C.ar    1  UNL1        0.0072
     31 C           5.6949   44.1830    7.0887 C.ar    1  UNL1        0.0351
     32 S           5.8689   42.8057    8.0395 S.2     1  UNL1       -0.0903
@<TRIPOS>BOND
     1    21    22    1
     2    15    22    1
     3    16    17   ar
     4    18    19   ar
     5    14    19    1
     6    14    12    1
     7     7    12    1
     8     7     8    1
     9     8     9    1
    10     9    13    1
    11    10    12   am
    12     2     3   ar
    13     4     5   ar
    14     5    25    1
    15    27    23    1
    16    27    28    1
    17    28    32   ar
    18    29    30   ar
    19    31    32   ar
    20     6     1   ar
    21    20    15   ar
    22    13    10   am
    23    13     1    1
    24    25    23   am
    25    15    16   ar
    26    17    18   ar
    27    19    20   ar
    28    10    11    2
    29     1     2   ar
    30     3     4   ar
    31     5     6   ar
    32    23    24    2
    33    28    29   ar
    34    30    31   ar
    35    25    26    1
