@<TRIPOS>MOLECULE
MolPort-047-592-677 211610011 MCULE-9524300244 PubChem-76850008 ZINC000211610011
 27 29 0 0 0
SMALL
GASTEIGER

@<TRIPOS>ATOM
      1 C          12.5356   42.0175    6.7152 C.ar    1  UNL1        0.0000
      2 C          13.4764   41.3503    7.5005 C.ar    1  UNL1        0.0000
      3 C          14.7799   41.8383    7.6103 C.ar    1  UNL1        0.0000
      4 C          15.1127   43.0409    6.9544 C.ar    1  UNL1        0.0000
      5 C          12.9133   43.1849    6.0509 C.ar    1  UNL1        0.0000
      6 N          14.1762   43.6684    6.1867 N.ar    1  UNL1        0.0000
      7 B          11.0774   41.4623    6.5801 B       1  UNL1        0.0000
      8 O          10.0368   42.0195    7.4277 O.3     1  UNL1        0.0000
      9 O          10.8912   40.0430    6.3291 O.3     1  UNL1        0.0000
     10 C           9.7178   40.9205    8.2397 C.3     1  UNL1        0.0000
     11 C          10.2859   39.6254    7.5237 C.3     1  UNL1        0.0000
     12 C          11.3244   38.8692    8.3555 C.3     1  UNL1        0.0000
     13 C           9.2048   38.6110    7.1617 C.3     1  UNL1        0.0000
     14 C          10.3043   41.1593    9.6326 C.3     1  UNL1        0.0000
     15 C           8.2014   40.9009    8.4098 C.3     1  UNL1        0.0000
     16 O          14.1923   40.2772   10.0015 O.2     1  UNL1        0.0000
     17 C          15.3597   40.2581    9.5235 C.2     1  UNL1        0.0000
     18 N          15.7090   41.1306    8.4408 N.am    1  UNL1        0.0000
     19 H          16.6673   41.2538    8.2520 H       1  UNL1        0.0000
     20 C          16.3803   39.3744   10.1131 C.ar    1  UNL1        0.0000
     21 C          17.7416   39.7017   10.0225 C.ar    1  UNL1        0.0000
     22 C          18.7091   38.8634   10.5841 C.ar    1  UNL1        0.0000
     23 C          18.3228   37.6920   11.2407 C.ar    1  UNL1        0.0000
     24 C          16.9690   37.3588   11.3362 C.ar    1  UNL1        0.0000
     25 C          16.0014   38.1970   10.7745 C.ar    1  UNL1        0.0000
     26 O          16.3803   43.6055    7.1148 O.3     1  UNL1        0.0000
     27 C          17.1141   44.1384    6.0225 C.3     1  UNL1        0.0000
@<TRIPOS>BOND
     1     7     8    1
     2     7     1    1
     3     7     9    1
     4    10     8    1
     5    10    11    1
     6    10    14    1
     7    10    15    1
     8    11     9    1
     9    11    12    1
    10    11    13    1
    11     2     3   ar
    12     3    18    1
    13     4     6   ar
    14     4    26    1
    15     5     1   ar
    16    27    26    1
    17    17    20    1
    18    21    22   ar
    19    23    24   ar
    20    25    20   ar
    21    18    17   am
    22     1     2   ar
    23     3     4   ar
    24     5     6   ar
    25    17    16    2
    26    20    21   ar
    27    22    23   ar
    28    24    25   ar
    29    18    19    1
@<TRIPOS>MOLECULE
MolPort-047-592-677 211610011 MCULE-9524300244 PubChem-76850008 ZINC000211610011
 27 29 0 0 0
SMALL
GASTEIGER

@<TRIPOS>ATOM
      1 C          14.2347   41.9381    7.3720 C.ar    1  UNL1        0.0000
      2 C          13.7966   40.7091    7.8664 C.ar    1  UNL1        0.0000
      3 C          12.4920   40.5624    8.3418 C.ar    1  UNL1        0.0000
      4 C          11.6140   41.6626    8.2675 C.ar    1  UNL1        0.0000
      5 C          13.3471   43.0144    7.3493 C.ar    1  UNL1        0.0000
      6 N          12.0705   42.8548    7.7873 N.ar    1  UNL1        0.0000
      7 B          15.7024   42.1070    6.8521 B       1  UNL1        0.0000
      8 O          16.7858   42.1453    7.8199 O.3     1  UNL1        0.0000
      9 O          15.9434   42.9742    5.7111 O.3     1  UNL1        0.0000
     10 C          17.2418   43.4648    7.6786 C.3     1  UNL1        0.0000
     11 C          16.6820   44.0113    6.2999 C.3     1  UNL1        0.0000
     12 C          15.7714   45.2325    6.4475 C.3     1  UNL1        0.0000
     13 C          17.7791   44.4104    5.3172 C.3     1  UNL1        0.0000
     14 C          16.7777   44.2717    8.8929 C.3     1  UNL1        0.0000
     15 C          18.7662   43.4323    7.7415 C.3     1  UNL1        0.0000
     16 O          14.0476   38.0969    8.3839 O.2     1  UNL1        0.0000
     17 C          12.9252   38.1282    8.9592 C.2     1  UNL1        0.0000
     18 N          12.0792   39.2779    8.8253 N.am    1  UNL1        0.0000
     19 H          11.1357   39.1766    9.0874 H       1  UNL1        0.0000
     20 C          12.4609   36.9602    9.7275 C.ar    1  UNL1        0.0000
     21 C          13.2225   35.7823    9.7592 C.ar    1  UNL1        0.0000
     22 C          12.7820   34.6751   10.4902 C.ar    1  UNL1        0.0000
     23 C          11.5770   34.7376   11.1950 C.ar    1  UNL1        0.0000
     24 C          10.8126   35.9071   11.1694 C.ar    1  UNL1        0.0000
     25 C          11.2530   37.0144   10.4384 C.ar    1  UNL1        0.0000
     26 O          10.2774   41.5267    8.6504 O.3     1  UNL1        0.0000
     27 C           9.2730   41.0900    7.7471 C.3     1  UNL1        0.0000
@<TRIPOS>BOND
     1     7     8    1
     2     7     1    1
     3     7     9    1
     4    10     8    1
     5    10    11    1
     6    10    14    1
     7    10    15    1
     8    11     9    1
     9    11    12    1
    10    11    13    1
    11     2     3   ar
    12     3    18    1
    13     4     6   ar
    14     4    26    1
    15     5     1   ar
    16    27    26    1
    17    17    20    1
    18    21    22   ar
    19    23    24   ar
    20    25    20   ar
    21    18    17   am
    22     1     2   ar
    23     3     4   ar
    24     5     6   ar
    25    17    16    2
    26    20    21   ar
    27    22    23   ar
    28    24    25   ar
    29    18    19    1
@<TRIPOS>MOLECULE
MolPort-047-592-677 211610011 MCULE-9524300244 PubChem-76850008 ZINC000211610011
 27 29 0 0 0
SMALL
GASTEIGER

@<TRIPOS>ATOM
      1 C          15.6081   35.3043   13.6946 C.ar    1  UNL1        0.0000
      2 C          15.8021   36.5269   13.0507 C.ar    1  UNL1        0.0000
      3 C          15.0915   36.8351   11.8890 C.ar    1  UNL1        0.0000
      4 C          14.1416   35.9112   11.4082 C.ar    1  UNL1        0.0000
      5 C          14.6859   34.3998   13.1671 C.ar    1  UNL1        0.0000
      6 N          13.9777   34.7201   12.0523 N.ar    1  UNL1        0.0000
      7 B          16.4156   34.9521   14.9894 B       1  UNL1        0.0000
      8 O          17.7215   35.5590   15.1845 O.3     1  UNL1        0.0000
      9 O          16.3485   33.5956   15.5067 O.3     1  UNL1        0.0000
     10 C          18.5658   34.4415   15.0996 C.3     1  UNL1        0.0000
     11 C          17.6641   33.1536   15.3020 C.3     1  UNL1        0.0000
     12 C          17.6753   32.2014   14.1040 C.3     1  UNL1        0.0000
     13 C          18.0636   32.3202   16.5163 C.3     1  UNL1        0.0000
     14 C          19.2881   34.4797   13.7513 C.3     1  UNL1        0.0000
     15 C          19.6434   34.5987   16.1688 C.3     1  UNL1        0.0000
     16 O          17.6474   38.0919   11.2662 O.2     1  UNL1        0.0000
     17 C          16.5810   38.6238   10.8519 C.2     1  UNL1        0.0000
     18 N          15.3099   38.1089   11.2697 N.am    1  UNL1        0.0000
     19 H          14.5210   38.6781   11.1186 H       1  UNL1        0.0000
     20 C          16.6424   39.8083    9.9782 C.ar    1  UNL1        0.0000
     21 C          17.8784   40.3843    9.6482 C.ar    1  UNL1        0.0000
     22 C          17.9357   41.5072    8.8173 C.ar    1  UNL1        0.0000
     23 C          16.7578   42.0622    8.3104 C.ar    1  UNL1        0.0000
     24 C          15.5225   41.4944    8.6336 C.ar    1  UNL1        0.0000
     25 C          15.4651   40.3715    9.4644 C.ar    1  UNL1        0.0000
     26 O          13.3492   36.2244   10.3012 O.3     1  UNL1        0.0000
     27 C          12.6781   35.2271    9.5457 C.3     1  UNL1        0.0000
@<TRIPOS>BOND
     1     7     8    1
     2     7     1    1
     3     7     9    1
     4    10     8    1
     5    10    11    1
     6    10    14    1
     7    10    15    1
     8    11     9    1
     9    11    12    1
    10    11    13    1
    11     2     3   ar
    12     3    18    1
    13     4     6   ar
    14     4    26    1
    15     5     1   ar
    16    27    26    1
    17    17    20    1
    18    21    22   ar
    19    23    24   ar
    20    25    20   ar
    21    18    17   am
    22     1     2   ar
    23     3     4   ar
    24     5     6   ar
    25    17    16    2
    26    20    21   ar
    27    22    23   ar
    28    24    25   ar
    29    18    19    1
@<TRIPOS>MOLECULE
MolPort-047-592-677 211610011 MCULE-9524300244 PubChem-76850008 ZINC000211610011
 27 29 0 0 0
SMALL
GASTEIGER

@<TRIPOS>ATOM
      1 C          10.8796   40.7226    9.6556 C.ar    1  UNL1        0.0000
      2 C           9.5128   40.8801    9.8879 C.ar    1  UNL1        0.0000
      3 C           8.9708   42.1516   10.0846 C.ar    1  UNL1        0.0000
      4 C           9.8196   43.2734    9.9955 C.ar    1  UNL1        0.0000
      5 C          11.6941   41.8546    9.6117 C.ar    1  UNL1        0.0000
      6 N          11.1532   43.0905    9.7756 N.ar    1  UNL1        0.0000
      7 B          11.4905   39.2953    9.4494 B       1  UNL1        0.0000
      8 O          11.7446   38.4692   10.6176 O.3     1  UNL1        0.0000
      9 O          12.4837   39.1051    8.4056 O.3     1  UNL1        0.0000
     10 C          13.1457   38.3936   10.6086 C.3     1  UNL1        0.0000
     11 C          13.6308   38.8192    9.1607 C.3     1  UNL1        0.0000
     12 C          14.5361   40.0532    9.1542 C.3     1  UNL1        0.0000
     13 C          14.3988   37.7197    8.4326 C.3     1  UNL1        0.0000
     14 C          13.6876   39.2881   11.7254 C.3     1  UNL1        0.0000
     15 C          13.5302   36.9639   10.9787 C.3     1  UNL1        0.0000
     16 O           6.8219   41.3257    8.2956 O.2     1  UNL1        0.0000
     17 C           6.5383   41.7185    9.4605 C.2     1  UNL1        0.0000
     18 N           7.5592   42.2685   10.3035 N.am    1  UNL1        0.0000
     19 H           7.2661   42.7683   11.0994 H       1  UNL1        0.0000
     20 C           5.1455   41.6597    9.9365 C.ar    1  UNL1        0.0000
     21 C           4.8571   41.7712   11.3050 C.ar    1  UNL1        0.0000
     22 C           3.5348   41.7173   11.7556 C.ar    1  UNL1        0.0000
     23 C           2.4912   41.5518   10.8411 C.ar    1  UNL1        0.0000
     24 C           2.7695   41.4407    9.4762 C.ar    1  UNL1        0.0000
     25 C           4.0918   41.4946    9.0256 C.ar    1  UNL1        0.0000
     26 O           9.2967   44.5648   10.0977 O.3     1  UNL1        0.0000
     27 C           8.2933   45.0459    9.2159 C.3     1  UNL1        0.0000
@<TRIPOS>BOND
     1     7     8    1
     2     7     1    1
     3     7     9    1
     4    10     8    1
     5    10    11    1
     6    10    14    1
     7    10    15    1
     8    11     9    1
     9    11    12    1
    10    11    13    1
    11     2     3   ar
    12     3    18    1
    13     4     6   ar
    14     4    26    1
    15     5     1   ar
    16    27    26    1
    17    17    20    1
    18    21    22   ar
    19    23    24   ar
    20    25    20   ar
    21    18    17   am
    22     1     2   ar
    23     3     4   ar
    24     5     6   ar
    25    17    16    2
    26    20    21   ar
    27    22    23   ar
    28    24    25   ar
    29    18    19    1
@<TRIPOS>MOLECULE
MolPort-047-592-677 211610011 MCULE-9524300244 PubChem-76850008 ZINC000211610011
 27 29 0 0 0
SMALL
GASTEIGER

@<TRIPOS>ATOM
      1 C           7.6859   41.9016    7.4794 C.ar    1  UNL1        0.0000
      2 C           6.8421   41.8248    8.5879 C.ar    1  UNL1        0.0000
      3 C           5.9693   42.8729    8.8865 C.ar    1  UNL1        0.0000
      4 C           5.9218   43.9849    8.0216 C.ar    1  UNL1        0.0000
      5 C           7.6365   43.0355    6.6678 C.ar    1  UNL1        0.0000
      6 N           6.7633   44.0382    6.9495 N.ar    1  UNL1        0.0000
      7 B           8.6755   40.7326    7.1525 B       1  UNL1        0.0000
      8 O           8.8261   39.6554    8.1161 O.3     1  UNL1        0.0000
      9 O           9.9170   41.0412    6.4628 O.3     1  UNL1        0.0000
     10 C          10.1534   39.8361    8.5340 C.3     1  UNL1        0.0000
     11 C          10.8663   40.7522    7.4544 C.3     1  UNL1        0.0000
     12 C          11.3935   42.0725    8.0210 C.3     1  UNL1        0.0000
     13 C          12.0514   40.0739    6.7732 C.3     1  UNL1        0.0000
     14 C          10.1420   40.4393    9.9400 C.3     1  UNL1        0.0000
     15 C          10.7853   38.4532    8.6649 C.3     1  UNL1        0.0000
     16 O           3.0622   42.6514    8.8992 O.2     1  UNL1        0.0000
     17 C           3.6977   42.4941    9.9776 C.2     1  UNL1        0.0000
     18 N           5.1085   42.7447   10.0252 N.am    1  UNL1        0.0000
     19 H           5.5206   42.8363   10.9146 H       1  UNL1        0.0000
     20 C           2.9796   42.1022   11.2027 C.ar    1  UNL1        0.0000
     21 C           1.9290   42.8919   11.6937 C.ar    1  UNL1        0.0000
     22 C           1.2468   42.5180   12.8553 C.ar    1  UNL1        0.0000
     23 C           1.6100   41.3519   13.5343 C.ar    1  UNL1        0.0000
     24 C           2.6548   40.5593   13.0517 C.ar    1  UNL1        0.0000
     25 C           3.3370   40.9330   11.8902 C.ar    1  UNL1        0.0000
     26 O           4.9980   45.0100    8.2390 O.3     1  UNL1        0.0000
     27 C           3.9594   45.3000    7.3155 C.3     1  UNL1        0.0000
@<TRIPOS>BOND
     1     7     8    1
     2     7     1    1
     3     7     9    1
     4    10     8    1
     5    10    11    1
     6    10    14    1
     7    10    15    1
     8    11     9    1
     9    11    12    1
    10    11    13    1
    11     2     3   ar
    12     3    18    1
    13     4     6   ar
    14     4    26    1
    15     5     1   ar
    16    27    26    1
    17    17    20    1
    18    21    22   ar
    19    23    24   ar
    20    25    20   ar
    21    18    17   am
    22     1     2   ar
    23     3     4   ar
    24     5     6   ar
    25    17    16    2
    26    20    21   ar
    27    22    23   ar
    28    24    25   ar
    29    18    19    1
@<TRIPOS>MOLECULE
MolPort-047-592-677 211610011 MCULE-9524300244 PubChem-76850008 ZINC000211610011
 27 29 0 0 0
SMALL
GASTEIGER

@<TRIPOS>ATOM
      1 C          12.4201   41.2145    8.1428 C.ar    1  UNL1        0.0000
      2 C          13.5884   40.6185    8.6192 C.ar    1  UNL1        0.0000
      3 C          14.8323   41.2012    8.3693 C.ar    1  UNL1        0.0000
      4 C          14.8816   42.4248    7.6712 C.ar    1  UNL1        0.0000
      5 C          12.5125   42.4063    7.4232 C.ar    1  UNL1        0.0000
      6 N          13.7252   42.9816    7.2096 N.ar    1  UNL1        0.0000
      7 B          11.0258   40.5534    8.4103 B       1  UNL1        0.0000
      8 O          10.7841   39.2087    7.9152 O.3     1  UNL1        0.0000
      9 O           9.8367   41.3877    8.3610 O.3     1  UNL1        0.0000
     10 C           9.7961   39.4399    6.9460 C.3     1  UNL1        0.0000
     11 C           9.1810   40.8724    7.2329 C.3     1  UNL1        0.0000
     12 C           9.3569   41.8593    6.0765 C.3     1  UNL1        0.0000
     13 C           7.6875   40.8381    7.5445 C.3     1  UNL1        0.0000
     14 C          10.4345   39.3118    5.5615 C.3     1  UNL1        0.0000
     15 C           8.7747   38.3111    7.0541 C.3     1  UNL1        0.0000
     16 O          15.0424   39.5636   10.7722 O.2     1  UNL1        0.0000
     17 C          16.0333   39.6504    9.9961 C.2     1  UNL1        0.0000
     18 N          16.0050   40.5640    8.8915 N.am    1  UNL1        0.0000
     19 H          16.8629   40.7709    8.4553 H       1  UNL1        0.0000
     20 C          17.2417   38.8489   10.2555 C.ar    1  UNL1        0.0000
     21 C          17.1431   37.5967   10.8805 C.ar    1  UNL1        0.0000
     22 C          18.2904   36.8360   11.1245 C.ar    1  UNL1        0.0000
     23 C          19.5445   37.3216   10.7451 C.ar    1  UNL1        0.0000
     24 C          19.6517   38.5675   10.1214 C.ar    1  UNL1        0.0000
     25 C          18.5045   39.3282    9.8774 C.ar    1  UNL1        0.0000
     26 O          16.1000   43.0812    7.4814 O.3     1  UNL1        0.0000
     27 C          16.2045   44.2765    6.7223 C.3     1  UNL1        0.0000
@<TRIPOS>BOND
     1     7     8    1
     2     7     1    1
     3     7     9    1
     4    10     8    1
     5    10    11    1
     6    10    14    1
     7    10    15    1
     8    11     9    1
     9    11    12    1
    10    11    13    1
    11     2     3   ar
    12     3    18    1
    13     4     6   ar
    14     4    26    1
    15     5     1   ar
    16    27    26    1
    17    17    20    1
    18    21    22   ar
    19    23    24   ar
    20    25    20   ar
    21    18    17   am
    22     1     2   ar
    23     3     4   ar
    24     5     6   ar
    25    17    16    2
    26    20    21   ar
    27    22    23   ar
    28    24    25   ar
    29    18    19    1
@<TRIPOS>MOLECULE
MolPort-047-592-677 211610011 MCULE-9524300244 PubChem-76850008 ZINC000211610011
 27 29 0 0 0
SMALL
GASTEIGER

@<TRIPOS>ATOM
      1 C           7.6817   40.9786    6.3868 C.ar    1  UNL1        0.0000
      2 C           8.8738   41.7037    6.4041 C.ar    1  UNL1        0.0000
      3 C          10.0259   41.1848    5.8103 C.ar    1  UNL1        0.0000
      4 C           9.9499   39.9406    5.1523 C.ar    1  UNL1        0.0000
      5 C           7.6554   39.7334    5.7579 C.ar    1  UNL1        0.0000
      6 N           8.7743   39.2490    5.1574 N.ar    1  UNL1        0.0000
      7 B           6.3928   41.5538    7.0655 B       1  UNL1        0.0000
      8 O           6.1338   42.9808    6.9752 O.3     1  UNL1        0.0000
      9 O           5.9585   40.9875    8.3316 O.3     1  UNL1        0.0000
     10 C           6.2664   43.3755    8.3152 C.3     1  UNL1        0.0000
     11 C           6.1604   42.0673    9.2041 C.3     1  UNL1        0.0000
     12 C           7.4123   41.7889   10.0392 C.3     1  UNL1        0.0000
     13 C           4.9893   42.0937   10.1821 C.3     1  UNL1        0.0000
     14 C           7.5940   44.1194    8.4733 C.3     1  UNL1        0.0000
     15 C           5.1666   44.3932    8.6044 C.3     1  UNL1        0.0000
     16 O          11.9456   41.4224    7.9918 O.2     1  UNL1        0.0000
     17 C          12.2125   41.9457    6.8752 C.2     1  UNL1        0.0000
     18 N          11.2241   41.9707    5.8370 N.am    1  UNL1        0.0000
     19 H          11.3816   42.5788    5.0789 H       1  UNL1        0.0000
     20 C          13.5247   42.5781    6.6555 C.ar    1  UNL1        0.0000
     21 C          13.6748   43.5867    5.6918 C.ar    1  UNL1        0.0000
     22 C          14.9201   44.1876    5.4855 C.ar    1  UNL1        0.0000
     23 C          16.0242   43.7847    6.2412 C.ar    1  UNL1        0.0000
     24 C          15.8833   42.7814    7.2036 C.ar    1  UNL1        0.0000
     25 C          14.6381   42.1804    7.4101 C.ar    1  UNL1        0.0000
     26 O          11.0587   39.4330    4.4708 O.3     1  UNL1        0.0000
     27 C          10.9556   38.3462    3.5630 C.3     1  UNL1        0.0000
@<TRIPOS>BOND
     1     7     8    1
     2     7     1    1
     3     7     9    1
     4    10     8    1
     5    10    11    1
     6    10    14    1
     7    10    15    1
     8    11     9    1
     9    11    12    1
    10    11    13    1
    11     2     3   ar
    12     3    18    1
    13     4     6   ar
    14     4    26    1
    15     5     1   ar
    16    27    26    1
    17    17    20    1
    18    21    22   ar
    19    23    24   ar
    20    25    20   ar
    21    18    17   am
    22     1     2   ar
    23     3     4   ar
    24     5     6   ar
    25    17    16    2
    26    20    21   ar
    27    22    23   ar
    28    24    25   ar
    29    18    19    1
@<TRIPOS>MOLECULE
MolPort-047-592-677 211610011 MCULE-9524300244 PubChem-76850008 ZINC000211610011
 27 29 0 0 0
SMALL
GASTEIGER

@<TRIPOS>ATOM
      1 C          11.3487   39.9145   10.1181 C.ar    1  UNL1        0.0000
      2 C          12.4658   40.6099    9.6539 C.ar    1  UNL1        0.0000
      3 C          13.6386   39.9267    9.3267 C.ar    1  UNL1        0.0000
      4 C          13.6566   38.5208    9.4271 C.ar    1  UNL1        0.0000
      5 C          11.4174   38.5262   10.2397 C.ar    1  UNL1        0.0000
      6 N          12.5535   37.8667    9.8914 N.ar    1  UNL1        0.0000
      7 B          10.0378   40.6819   10.4992 B       1  UNL1        0.0000
      8 O           8.9190   40.6559    9.5721 O.3     1  UNL1        0.0000
      9 O          10.1498   41.9491   11.2020 O.3     1  UNL1        0.0000
     10 C           8.8534   41.9997    9.1737 C.3     1  UNL1        0.0000
     11 C           9.6680   42.8467   10.2376 C.3     1  UNL1        0.0000
     12 C          10.8575   43.6023    9.6406 C.3     1  UNL1        0.0000
     13 C           8.8181   43.8872   10.9613 C.3     1  UNL1        0.0000
     14 C           9.4020   42.1115    7.7498 C.3     1  UNL1        0.0000
     15 C           7.3784   42.3838    9.0971 C.3     1  UNL1        0.0000
     16 O          13.7188   41.6768    6.9963 O.2     1  UNL1        0.0000
     17 C          14.7120   41.6381    7.7733 C.2     1  UNL1        0.0000
     18 N          14.7563   40.6790    8.8380 N.am    1  UNL1        0.0000
     19 H          15.6275   40.5242    9.2696 H       1  UNL1        0.0000
     20 C          15.8515   42.5456    7.5543 C.ar    1  UNL1        0.0000
     21 C          16.9639   42.5081    8.4085 C.ar    1  UNL1        0.0000
     22 C          18.0457   43.3684    8.1986 C.ar    1  UNL1        0.0000
     23 C          18.0233   44.2722    7.1331 C.ar    1  UNL1        0.0000
     24 C          16.9196   44.3157    6.2771 C.ar    1  UNL1        0.0000
     25 C          15.8378   43.4554    6.4869 C.ar    1  UNL1        0.0000
     26 O          14.7818   37.7982    9.0232 O.3     1  UNL1        0.0000
     27 C          14.6788   36.5454    8.3633 C.3     1  UNL1        0.0000
@<TRIPOS>BOND
     1     7     8    1
     2     7     1    1
     3     7     9    1
     4    10     8    1
     5    10    11    1
     6    10    14    1
     7    10    15    1
     8    11     9    1
     9    11    12    1
    10    11    13    1
    11     2     3   ar
    12     3    18    1
    13     4     6   ar
    14     4    26    1
    15     5     1   ar
    16    27    26    1
    17    17    20    1
    18    21    22   ar
    19    23    24   ar
    20    25    20   ar
    21    18    17   am
    22     1     2   ar
    23     3     4   ar
    24     5     6   ar
    25    17    16    2
    26    20    21   ar
    27    22    23   ar
    28    24    25   ar
    29    18    19    1
@<TRIPOS>MOLECULE
MolPort-047-592-677 211610011 MCULE-9524300244 PubChem-76850008 ZINC000211610011
 27 29 0 0 0
SMALL
GASTEIGER

@<TRIPOS>ATOM
      1 C          11.4001   40.4459    9.1070 C.ar    1  UNL1        0.0000
      2 C          12.7789   40.2362    9.0635 C.ar    1  UNL1        0.0000
      3 C          13.3196   39.0066    9.4441 C.ar    1  UNL1        0.0000
      4 C          12.4454   37.9685    9.8250 C.ar    1  UNL1        0.0000
      5 C          10.5696   39.4057    9.5254 C.ar    1  UNL1        0.0000
      6 N          11.1024   38.2029    9.8665 N.ar    1  UNL1        0.0000
      7 B          10.7942   41.8299    8.6941 B       1  UNL1        0.0000
      8 O          10.7068   42.8802    9.6946 O.3     1  UNL1        0.0000
      9 O           9.6794   41.8537    7.7620 O.3     1  UNL1        0.0000
     10 C           9.3176   43.0134    9.8410 C.3     1  UNL1        0.0000
     11 C           8.6436   42.3324    8.5781 C.3     1  UNL1        0.0000
     12 C           7.7224   41.1620    8.9298 C.3     1  UNL1        0.0000
     13 C           7.8092   43.2993    7.7428 C.3     1  UNL1        0.0000
     14 C           8.9067   42.3809   11.1721 C.3     1  UNL1        0.0000
     15 C           9.0099   44.5034    9.9602 C.3     1  UNL1        0.0000
     16 O          15.2391   39.0858   11.6372 O.2     1  UNL1        0.0000
     17 C          15.6274   38.7332   10.4897 C.2     1  UNL1        0.0000
     18 N          14.7398   38.8295    9.3680 N.am    1  UNL1        0.0000
     19 H          15.1392   38.7688    8.4703 H       1  UNL1        0.0000
     20 C          17.0121   38.2706   10.2931 C.ar    1  UNL1        0.0000
     21 C          18.0891   39.1479   10.4906 C.ar    1  UNL1        0.0000
     22 C          19.4029   38.7072   10.3057 C.ar    1  UNL1        0.0000
     23 C          19.6495   37.3864    9.9221 C.ar    1  UNL1        0.0000
     24 C          18.5827   36.5058    9.7239 C.ar    1  UNL1        0.0000
     25 C          17.2688   36.9463    9.9089 C.ar    1  UNL1        0.0000
     26 O          12.9450   36.6990   10.1255 O.3     1  UNL1        0.0000
     27 C          13.6745   35.9305    9.1805 C.3     1  UNL1        0.0000
@<TRIPOS>BOND
     1     7     8    1
     2     7     1    1
     3     7     9    1
     4    10     8    1
     5    10    11    1
     6    10    14    1
     7    10    15    1
     8    11     9    1
     9    11    12    1
    10    11    13    1
    11     2     3   ar
    12     3    18    1
    13     4     6   ar
    14     4    26    1
    15     5     1   ar
    16    27    26    1
    17    17    20    1
    18    21    22   ar
    19    23    24   ar
    20    25    20   ar
    21    18    17   am
    22     1     2   ar
    23     3     4   ar
    24     5     6   ar
    25    17    16    2
    26    20    21   ar
    27    22    23   ar
    28    24    25   ar
    29    18    19    1
@<TRIPOS>MOLECULE
MolPort-047-592-677 211610011 MCULE-9524300244 PubChem-76850008 ZINC000211610011
 27 29 0 0 0
SMALL
GASTEIGER

@<TRIPOS>ATOM
      1 C          10.7258   39.4576    8.5645 C.ar    1  UNL1        0.0000
      2 C          11.8868   40.1952    8.3302 C.ar    1  UNL1        0.0000
      3 C          13.1426   39.6286    8.5568 C.ar    1  UNL1        0.0000
      4 C          13.2160   38.2855    8.9782 C.ar    1  UNL1        0.0000
      5 C          10.8385   38.1427    9.0174 C.ar    1  UNL1        0.0000
      6 N          12.0654   37.5898    9.2075 N.ar    1  UNL1        0.0000
      7 B           9.3167   40.0977    8.3245 B       1  UNL1        0.0000
      8 O           8.2973   39.3098    7.6523 O.3     1  UNL1        0.0000
      9 O           9.2391   41.5102    7.9914 O.3     1  UNL1        0.0000
     10 C           8.1391   40.0202    6.4527 C.3     1  UNL1        0.0000
     11 C           8.7647   41.4601    6.6721 C.3     1  UNL1        0.0000
     12 C           9.9258   41.7760    5.7265 C.3     1  UNL1        0.0000
     13 C           7.7540   42.5908    6.5034 C.3     1  UNL1        0.0000
     14 C           8.8050   39.2265    5.3268 C.3     1  UNL1        0.0000
     15 C           6.6475   40.0520    6.1319 C.3     1  UNL1        0.0000
     16 O          13.3921   41.8466    6.6810 O.2     1  UNL1        0.0000
     17 C          14.3482   41.5892    7.4630 C.2     1  UNL1        0.0000
     18 N          14.3088   40.4167    8.2871 N.am    1  UNL1        0.0000
     19 H          15.1536   40.1288    8.7025 H       1  UNL1        0.0000
     20 C          15.5304   42.4676    7.4915 C.ar    1  UNL1        0.0000
     21 C          15.5937   43.6006    6.6663 C.ar    1  UNL1        0.0000
     22 C          16.7153   44.4347    6.6956 C.ar    1  UNL1        0.0000
     23 C          17.7814   44.1423    7.5503 C.ar    1  UNL1        0.0000
     24 C          17.7262   43.0163    8.3760 C.ar    1  UNL1        0.0000
     25 C          16.6048   42.1821    8.3468 C.ar    1  UNL1        0.0000
     26 O          14.4555   37.6590    9.1282 O.3     1  UNL1        0.0000
     27 C          14.5884   36.2460    9.1680 C.3     1  UNL1        0.0000
@<TRIPOS>BOND
     1     7     8    1
     2     7     1    1
     3     7     9    1
     4    10     8    1
     5    10    11    1
     6    10    14    1
     7    10    15    1
     8    11     9    1
     9    11    12    1
    10    11    13    1
    11     2     3   ar
    12     3    18    1
    13     4     6   ar
    14     4    26    1
    15     5     1   ar
    16    27    26    1
    17    17    20    1
    18    21    22   ar
    19    23    24   ar
    20    25    20   ar
    21    18    17   am
    22     1     2   ar
    23     3     4   ar
    24     5     6   ar
    25    17    16    2
    26    20    21   ar
    27    22    23   ar
    28    24    25   ar
    29    18    19    1
