@<TRIPOS>MOLECULE
MolPort-001-980-258 350703 CHEMBL1569906 CSSS03436650360 MCULE-6472137387 PubChem-650633 ZINC000000350703
 23 25 0 0 0
SMALL
GASTEIGER

@<TRIPOS>ATOM
      1 C          13.3500   41.5940    8.2333 C.ar    1  UNL1        0.0809
      2 C          11.9417   40.7878   10.1472 C.ar    1  UNL1        0.0903
      3 C          13.2328   40.2580   10.1619 C.ar    1  UNL1        0.0847
      4 C          14.0156   40.6963    9.0771 C.ar    1  UNL1       -0.0001
      5 C          15.4397   40.2840    8.8860 C.3     1  UNL1        0.0325
      6 S          11.7907   41.8216    8.8358 S.2     1  UNL1       -0.0673
      7 C          13.8838   42.1972    6.9895 C.2     1  UNL1        0.2548
      8 C          15.9980   43.0618    8.0678 C.3     1  UNL1        0.0937
      9 C          17.4016   42.9255    7.4740 C.3     1  UNL1        0.0216
     10 C          17.6470   43.8444    6.2664 C.3     1  UNL1        0.0035
     11 C          16.4896   44.8040    5.9938 C.3     1  UNL1        0.0216
     12 C          15.1833   44.0225    5.8692 C.3     1  UNL1        0.0937
     13 N          14.9954   43.1097    7.0021 N.am    1  UNL1       -0.2757
     14 O          13.3344   41.9137    5.8902 O.2     1  UNL1       -0.2694
     15 C           9.8214   41.5016   11.3532 C.2     1  UNL1        0.2260
     16 N          10.9170   40.6072   11.1318 N.am    1  UNL1       -0.2784
     17 O           9.8687   42.6885   10.9307 O.2     1  UNL1       -0.2748
     18 H          10.9705   39.8055   11.7007 H       1  UNL1        0.1553
     19 C           8.6607   41.0578   12.1811 C.3     1  UNL1        0.0768
     20 C           7.3684   41.5761   11.5764 C.3     1  UNL1        0.0096
     21 C           7.9646   42.2655   12.7823 C.3     1  UNL1        0.0096
     22 C          13.7575   39.4383   11.2265 C.1     1  UNL1        0.1019
     23 N          14.1779   38.7788   12.0797 N.1     1  UNL1       -0.1908
@<TRIPOS>BOND
     1     1     6   ar
     2     1     7    1
     3     2     6   ar
     4     2    16    1
     5     3    22    1
     6     3     4   ar
     7     5     4    1
     8    19    15    1
     9    19    20    1
    10    20    21    1
    11    21    19    1
    12     7    13   am
    13     8    13    1
    14     8     9    1
    15     9    10    1
    16    10    11    1
    17    11    12    1
    18    12    13    1
    19    16    15   am
    20     2     3   ar
    21     4     1   ar
    22    15    17    2
    23     7    14    2
    24    22    23    3
    25    16    18    1
@<TRIPOS>MOLECULE
MolPort-001-980-258 350703 CHEMBL1569906 CSSS03436650360 MCULE-6472137387 PubChem-650633 ZINC000000350703
 23 25 0 0 0
SMALL
GASTEIGER

@<TRIPOS>ATOM
      1 C          11.4023   40.8719    7.0356 C.ar    1  UNL1        0.0809
      2 C          13.6725   41.9404    7.0589 C.ar    1  UNL1        0.0903
      3 C          13.5226   40.9617    8.0426 C.ar    1  UNL1        0.0847
      4 C          12.2423   40.3766    8.0405 C.ar    1  UNL1       -0.0001
      5 C          11.8464   39.2888    8.9863 C.3     1  UNL1        0.0325
      6 S          12.2545   42.0426    6.1700 S.2     1  UNL1       -0.0673
      7 C           9.9891   40.4929    6.8003 C.2     1  UNL1        0.2548
      8 C           9.0355   42.3566    8.2136 C.3     1  UNL1        0.0937
      9 C           7.8680   43.2563    7.8028 C.3     1  UNL1        0.0216
     10 C           6.5064   42.5434    7.8320 C.3     1  UNL1        0.0035
     11 C           6.5799   41.1261    8.3982 C.3     1  UNL1        0.0216
     12 C           7.6383   40.3198    7.6483 C.3     1  UNL1        0.0937
     13 N           8.9136   41.0417    7.5817 N.am    1  UNL1       -0.2757
     14 O           9.7259   39.6511    5.8989 O.2     1  UNL1       -0.2694
     15 C          14.8849   44.0171    6.2360 C.2     1  UNL1        0.2260
     16 N          14.8587   42.6775    6.7400 N.am    1  UNL1       -0.2784
     17 O          13.8568   44.5233    5.7103 O.2     1  UNL1       -0.2748
     18 H          15.7234   42.2276    6.8782 H       1  UNL1        0.1553
     19 C          16.1671   44.7822    6.2370 C.3     1  UNL1        0.0768
     20 C          17.3001   43.8895    5.7644 C.3     1  UNL1        0.0096
     21 C          17.1304   44.1726    7.2395 C.3     1  UNL1        0.0096
     22 C          14.5896   40.5098    8.9016 C.1     1  UNL1        0.1019
     23 N          15.4450   40.1484    9.5925 N.1     1  UNL1       -0.1908
@<TRIPOS>BOND
     1     1     6   ar
     2     1     7    1
     3     2     6   ar
     4     2    16    1
     5     3    22    1
     6     3     4   ar
     7     5     4    1
     8    19    15    1
     9    19    20    1
    10    20    21    1
    11    21    19    1
    12     7    13   am
    13     8    13    1
    14     8     9    1
    15     9    10    1
    16    10    11    1
    17    11    12    1
    18    12    13    1
    19    16    15   am
    20     2     3   ar
    21     4     1   ar
    22    15    17    2
    23     7    14    2
    24    22    23    3
    25    16    18    1
@<TRIPOS>MOLECULE
MolPort-001-980-258 350703 CHEMBL1569906 CSSS03436650360 MCULE-6472137387 PubChem-650633 ZINC000000350703
 23 25 0 0 0
SMALL
GASTEIGER

@<TRIPOS>ATOM
      1 C          12.0335   41.0905    8.7050 C.ar    1  UNL1        0.0809
      2 C          14.2842   41.9082    7.9554 C.ar    1  UNL1        0.0903
      3 C          14.3653   40.8814    8.8973 C.ar    1  UNL1        0.0847
      4 C          13.1020   40.4368    9.3309 C.ar    1  UNL1       -0.0001
      5 C          12.9277   39.3306   10.3211 C.3     1  UNL1        0.0325
      6 S          12.6700   42.2247    7.6305 S.2     1  UNL1       -0.0673
      7 C          10.5914   40.8815    8.9742 C.2     1  UNL1        0.2548
      8 C          10.0760   39.9893    6.6680 C.3     1  UNL1        0.0937
      9 C           9.2272   38.7494    6.3793 C.3     1  UNL1        0.0216
     10 C           7.7255   38.9647    6.6267 C.3     1  UNL1        0.0035
     11 C           7.3730   40.4101    6.9751 C.3     1  UNL1        0.0216
     12 C           8.2260   40.8859    8.1492 C.3     1  UNL1        0.0937
     13 N           9.6501   40.6196    7.9188 N.am    1  UNL1       -0.2757
     14 O          10.1767   40.9528   10.1631 O.2     1  UNL1       -0.2694
     15 C          15.3262   43.8473    6.6851 C.2     1  UNL1        0.2260
     16 N          15.3673   42.5369    7.2599 N.am    1  UNL1       -0.2784
     17 O          14.2220   44.4081    6.4486 O.2     1  UNL1       -0.2748
     18 H          16.2053   42.0281    7.1702 H       1  UNL1        0.1553
     19 C          16.5965   44.5105    6.2655 C.3     1  UNL1        0.0768
     20 C          17.6498   43.4606    5.9617 C.3     1  UNL1        0.0096
     21 C          17.6917   44.2110    7.2732 C.3     1  UNL1        0.0096
     22 C          15.5992   40.2574    9.3077 C.1     1  UNL1        0.1019
     23 N          16.5895   39.7579    9.6388 N.1     1  UNL1       -0.1908
@<TRIPOS>BOND
     1     1     6   ar
     2     1     7    1
     3     2     6   ar
     4     2    16    1
     5     3    22    1
     6     3     4   ar
     7     5     4    1
     8    19    15    1
     9    19    20    1
    10    20    21    1
    11    21    19    1
    12     7    13   am
    13     8    13    1
    14     8     9    1
    15     9    10    1
    16    10    11    1
    17    11    12    1
    18    12    13    1
    19    16    15   am
    20     2     3   ar
    21     4     1   ar
    22    15    17    2
    23     7    14    2
    24    22    23    3
    25    16    18    1
@<TRIPOS>MOLECULE
MolPort-001-980-258 350703 CHEMBL1569906 CSSS03436650360 MCULE-6472137387 PubChem-650633 ZINC000000350703
 23 25 0 0 0
SMALL
GASTEIGER

@<TRIPOS>ATOM
      1 C          12.7259   40.6079    9.3561 C.ar    1  UNL1        0.0809
      2 C          14.7614   41.5525    8.2333 C.ar    1  UNL1        0.0903
      3 C          15.0725   40.6863    9.2825 C.ar    1  UNL1        0.0847
      4 C          13.9296   40.1721    9.9236 C.ar    1  UNL1       -0.0001
      5 C          14.0041   39.2066   11.0624 C.3     1  UNL1        0.0325
      6 S          13.0946   41.6397    8.0733 S.2     1  UNL1       -0.0673
      7 C          11.3592   40.2821    9.8271 C.2     1  UNL1        0.2548
      8 C          10.6700   42.6908   10.1488 C.3     1  UNL1        0.0937
      9 C           9.3397   43.2891    9.6867 C.3     1  UNL1        0.0216
     10 C           8.1386   42.8371   10.5329 C.3     1  UNL1        0.0035
     11 C           8.5373   41.9958   11.7446 C.3     1  UNL1        0.0216
     12 C           9.4058   40.8208   11.3000 C.3     1  UNL1        0.0937
     13 N          10.5128   41.2661   10.4467 N.am    1  UNL1       -0.2757
     14 O          10.9342   39.1020    9.6952 O.2     1  UNL1       -0.2694
     15 C          15.5306   43.5182    6.8176 C.2     1  UNL1        0.2260
     16 N          15.6751   42.1906    7.3332 N.am    1  UNL1       -0.2784
     17 O          14.4112   44.0976    6.8462 O.2     1  UNL1       -0.2748
     18 H          16.4639   41.6759    7.0468 H       1  UNL1        0.1553
     19 C          16.6883   44.1804    6.1461 C.3     1  UNL1        0.0768
     20 C          17.8541   43.2124    6.0559 C.3     1  UNL1        0.0096
     21 C          17.8518   44.2911    7.1149 C.3     1  UNL1        0.0096
     22 C          16.4123   40.2671    9.6137 C.1     1  UNL1        0.1019
     23 N          17.4868   39.9287    9.8795 N.1     1  UNL1       -0.1908
@<TRIPOS>BOND
     1     1     6   ar
     2     1     7    1
     3     2     6   ar
     4     2    16    1
     5     3    22    1
     6     3     4   ar
     7     5     4    1
     8    19    15    1
     9    19    20    1
    10    20    21    1
    11    21    19    1
    12     7    13   am
    13     8    13    1
    14     8     9    1
    15     9    10    1
    16    10    11    1
    17    11    12    1
    18    12    13    1
    19    16    15   am
    20     2     3   ar
    21     4     1   ar
    22    15    17    2
    23     7    14    2
    24    22    23    3
    25    16    18    1
@<TRIPOS>MOLECULE
MolPort-001-980-258 350703 CHEMBL1569906 CSSS03436650360 MCULE-6472137387 PubChem-650633 ZINC000000350703
 23 25 0 0 0
SMALL
GASTEIGER

@<TRIPOS>ATOM
      1 C          11.9169   40.1054    7.4342 C.ar    1  UNL1        0.0809
      2 C          14.0325   41.3609    7.9287 C.ar    1  UNL1        0.0903
      3 C          13.8416   40.2649    8.7715 C.ar    1  UNL1        0.0847
      4 C          12.6450   39.5729    8.5053 C.ar    1  UNL1       -0.0001
      5 C          12.2294   38.3516    9.2605 C.3     1  UNL1        0.0325
      6 S          12.7604   41.4398    6.8392 S.2     1  UNL1       -0.0673
      7 C          10.6028   39.6327    6.9387 C.2     1  UNL1        0.2548
      8 C          11.3752   39.3340    4.5523 C.3     1  UNL1        0.0937
      9 C          11.0734   38.1126    3.6816 C.3     1  UNL1        0.0216
     10 C           9.6113   38.0417    3.2125 C.3     1  UNL1        0.0035
     11 C           8.7950   39.2755    3.5949 C.3     1  UNL1        0.0216
     12 C           8.9083   39.5303    5.0965 C.3     1  UNL1        0.0937
     13 N          10.3084   39.5372    5.5341 N.am    1  UNL1       -0.2757
     14 O           9.7119   39.3217    7.7754 O.2     1  UNL1       -0.2694
     15 C          15.3824   43.2517    6.8981 C.2     1  UNL1        0.2260
     16 N          15.1685   42.2322    7.8800 N.am    1  UNL1       -0.2784
     17 O          14.7560   43.2282    5.8042 O.2     1  UNL1       -0.2748
     18 H          15.8557   42.1212    8.5762 H       1  UNL1        0.1553
     19 C          16.4311   44.2897    7.1269 C.3     1  UNL1        0.0768
     20 C          17.6845   43.9364    6.3470 C.3     1  UNL1        0.0096
     21 C          17.6235   43.6708    7.8338 C.3     1  UNL1        0.0096
     22 C          14.8099   39.8124    9.7401 C.1     1  UNL1        0.1019
     23 N          15.5881   39.4486   10.5157 N.1     1  UNL1       -0.1908
@<TRIPOS>BOND
     1     1     6   ar
     2     1     7    1
     3     2     6   ar
     4     2    16    1
     5     3    22    1
     6     3     4   ar
     7     5     4    1
     8    19    15    1
     9    19    20    1
    10    20    21    1
    11    21    19    1
    12     7    13   am
    13     8    13    1
    14     8     9    1
    15     9    10    1
    16    10    11    1
    17    11    12    1
    18    12    13    1
    19    16    15   am
    20     2     3   ar
    21     4     1   ar
    22    15    17    2
    23     7    14    2
    24    22    23    3
    25    16    18    1
@<TRIPOS>MOLECULE
MolPort-001-980-258 350703 CHEMBL1569906 CSSS03436650360 MCULE-6472137387 PubChem-650633 ZINC000000350703
 23 25 0 0 0
SMALL
GASTEIGER

@<TRIPOS>ATOM
      1 C          12.8457   41.4843    7.0600 C.ar    1  UNL1        0.0809
      2 C          10.5503   40.5076    7.3308 C.ar    1  UNL1        0.0903
      3 C          11.5402   39.7512    7.9600 C.ar    1  UNL1        0.0847
      4 C          12.8297   40.2901    7.7911 C.ar    1  UNL1       -0.0001
      5 C          14.0518   39.6716    8.3896 C.3     1  UNL1        0.0325
      6 S          11.2591   41.8497    6.6182 S.2     1  UNL1       -0.0673
      7 C          14.0433   42.2683    6.6764 C.2     1  UNL1        0.2548
      8 C          15.3555   41.6724    8.7509 C.3     1  UNL1        0.0937
      9 C          16.8209   41.2324    8.7626 C.3     1  UNL1        0.0216
     10 C          17.8058   42.3768    8.4737 C.3     1  UNL1        0.0035
     11 C          17.1294   43.7432    8.3727 C.3     1  UNL1        0.0216
     12 C          15.9930   43.6879    7.3538 C.3     1  UNL1        0.0937
     13 N          15.0969   42.5556    7.6124 N.am    1  UNL1       -0.2757
     14 O          14.1310   42.7101    5.4984 O.2     1  UNL1       -0.2694
     15 C           8.2087   40.9951    8.1904 C.2     1  UNL1        0.2260
     16 N           9.1355   40.2852    7.3619 N.am    1  UNL1       -0.2784
     17 O           8.6111   41.6291    9.2032 O.2     1  UNL1       -0.2748
     18 H           8.7722   39.5900    6.7670 H       1  UNL1        0.1553
     19 C           6.7446   40.8968    7.9140 C.3     1  UNL1        0.0768
     20 C           6.5145   40.1371    6.6201 C.3     1  UNL1        0.0096
     21 C           6.4099   41.6450    6.6362 C.3     1  UNL1        0.0096
     22 C          11.2735   38.6021    8.7901 C.1     1  UNL1        0.1019
     23 N          11.0615   37.6795    9.4560 N.1     1  UNL1       -0.1908
@<TRIPOS>BOND
     1     1     6   ar
     2     1     7    1
     3     2     6   ar
     4     2    16    1
     5     3    22    1
     6     3     4   ar
     7     5     4    1
     8    19    15    1
     9    19    20    1
    10    20    21    1
    11    21    19    1
    12     7    13   am
    13     8    13    1
    14     8     9    1
    15     9    10    1
    16    10    11    1
    17    11    12    1
    18    12    13    1
    19    16    15   am
    20     2     3   ar
    21     4     1   ar
    22    15    17    2
    23     7    14    2
    24    22    23    3
    25    16    18    1
@<TRIPOS>MOLECULE
MolPort-001-980-258 350703 CHEMBL1569906 CSSS03436650360 MCULE-6472137387 PubChem-650633 ZINC000000350703
 23 25 0 0 0
SMALL
GASTEIGER

@<TRIPOS>ATOM
      1 C           7.2940   42.6685    7.9413 C.ar    1  UNL1        0.0809
      2 C           8.9663   41.6512    6.3713 C.ar    1  UNL1        0.0903
      3 C           9.5202   41.9990    7.6043 C.ar    1  UNL1        0.0847
      4 C           8.5852   42.5870    8.4770 C.ar    1  UNL1       -0.0001
      5 C           8.9335   43.0245    9.8632 C.3     1  UNL1        0.0325
      6 S           7.3314   42.0230    6.3831 S.2     1  UNL1       -0.0673
      7 C           6.1060   43.2718    8.5897 C.2     1  UNL1        0.2548
      8 C           5.4599   41.1720    9.8361 C.3     1  UNL1        0.0937
      9 C           5.0551   41.1196   11.3108 C.3     1  UNL1        0.0216
     10 C           3.6604   41.7054   11.5837 C.3     1  UNL1        0.0035
     11 C           2.9088   42.0911   10.3105 C.3     1  UNL1        0.0216
     12 C           3.7698   43.0218    9.4589 C.3     1  UNL1        0.0937
     13 N           5.1149   42.4719    9.2580 N.am    1  UNL1       -0.2757
     14 O           5.9528   44.5226    8.5380 O.2     1  UNL1       -0.2694
     15 C           9.1593   39.7572    4.6876 C.2     1  UNL1        0.2260
     16 N           9.6141   40.9748    5.2874 N.am    1  UNL1       -0.2784
     17 O           8.3470   39.0087    5.2955 O.2     1  UNL1       -0.2748
     18 H          10.4363   41.3789    4.9269 H       1  UNL1        0.1553
     19 C           9.7315   39.3187    3.3799 C.3     1  UNL1        0.0768
     20 C           9.7278   37.8030    3.2983 C.3     1  UNL1        0.0096
     21 C          11.0113   38.5365    3.6136 C.3     1  UNL1        0.0096
     22 C          10.8743   41.6936    7.9965 C.1     1  UNL1        0.1019
     23 N          11.9603   41.4489    8.3132 N.1     1  UNL1       -0.1908
@<TRIPOS>BOND
     1     1     6   ar
     2     1     7    1
     3     2     6   ar
     4     2    16    1
     5     3    22    1
     6     3     4   ar
     7     5     4    1
     8    19    15    1
     9    19    20    1
    10    20    21    1
    11    21    19    1
    12     7    13   am
    13     8    13    1
    14     8     9    1
    15     9    10    1
    16    10    11    1
    17    11    12    1
    18    12    13    1
    19    16    15   am
    20     2     3   ar
    21     4     1   ar
    22    15    17    2
    23     7    14    2
    24    22    23    3
    25    16    18    1
@<TRIPOS>MOLECULE
MolPort-001-980-258 350703 CHEMBL1569906 CSSS03436650360 MCULE-6472137387 PubChem-650633 ZINC000000350703
 23 25 0 0 0
SMALL
GASTEIGER

@<TRIPOS>ATOM
      1 C          11.1635   41.2282    7.7473 C.ar    1  UNL1        0.0809
      2 C          13.5695   41.8885    8.0140 C.ar    1  UNL1        0.0903
      3 C          13.0532   42.2128    6.7585 C.ar    1  UNL1        0.0847
      4 C          11.7089   41.8246    6.6038 C.ar    1  UNL1       -0.0001
      5 C          10.9291   42.0828    5.3549 C.3     1  UNL1        0.0325
      6 S          12.3620   41.1758    8.9334 S.2     1  UNL1       -0.0673
      7 C           9.7957   40.6754    7.8872 C.2     1  UNL1        0.2548
      8 C           8.6965   42.9234    8.2315 C.3     1  UNL1        0.0937
      9 C           7.4119   43.3841    7.5395 C.3     1  UNL1        0.0216
     10 C           6.1478   42.6895    8.0710 C.3     1  UNL1        0.0035
     11 C           6.4165   41.7865    9.2739 C.3     1  UNL1        0.0216
     12 C           7.5258   40.7910    8.9406 C.3     1  UNL1        0.0937
     13 N           8.7015   41.4672    8.3815 N.am    1  UNL1       -0.2757
     14 O           9.5913   39.4696    7.5792 O.2     1  UNL1       -0.2694
     15 C          15.9030   41.2446    8.7886 C.2     1  UNL1        0.2260
     16 N          14.8706   42.2008    8.5256 N.am    1  UNL1       -0.2784
     17 O          15.6253   40.0213    8.9148 O.2     1  UNL1       -0.2748
     18 H          15.0703   43.1469    8.7108 H       1  UNL1        0.1553
     19 C          17.3021   41.7123    9.0198 C.3     1  UNL1        0.0768
     20 C          17.3840   43.2139    8.8137 C.3     1  UNL1        0.0096
     21 C          17.8757   42.2782    7.7332 C.3     1  UNL1        0.0096
     22 C          13.7723   42.9637    5.7587 C.1     1  UNL1        0.1019
     23 N          14.3508   43.5647    4.9564 N.1     1  UNL1       -0.1908
@<TRIPOS>BOND
     1     1     6   ar
     2     1     7    1
     3     2     6   ar
     4     2    16    1
     5     3    22    1
     6     3     4   ar
     7     5     4    1
     8    19    15    1
     9    19    20    1
    10    20    21    1
    11    21    19    1
    12     7    13   am
    13     8    13    1
    14     8     9    1
    15     9    10    1
    16    10    11    1
    17    11    12    1
    18    12    13    1
    19    16    15   am
    20     2     3   ar
    21     4     1   ar
    22    15    17    2
    23     7    14    2
    24    22    23    3
    25    16    18    1
@<TRIPOS>MOLECULE
MolPort-001-980-258 350703 CHEMBL1569906 CSSS03436650360 MCULE-6472137387 PubChem-650633 ZINC000000350703
 23 25 0 0 0
SMALL
GASTEIGER

@<TRIPOS>ATOM
      1 C          11.9892   41.2513    9.4143 C.ar    1  UNL1        0.0809
      2 C          14.1654   41.6591    8.2337 C.ar    1  UNL1        0.0903
      3 C          14.2523   40.6584    9.2026 C.ar    1  UNL1        0.0847
      4 C          13.0355   40.4440    9.8772 C.ar    1  UNL1       -0.0001
      5 C          12.8709   39.4092   10.9433 C.3     1  UNL1        0.0325
      6 S          12.5910   42.2338    8.1821 S.2     1  UNL1       -0.0673
      7 C          10.6065   41.2947    9.9457 C.2     1  UNL1        0.2548
      8 C           9.5067   41.1737    7.6750 C.3     1  UNL1        0.0937
      9 C           8.3261   40.2666    7.3222 C.3     1  UNL1        0.0216
     10 C           6.9950   40.7277    7.9374 C.3     1  UNL1        0.0035
     11 C           7.0971   42.0712    8.6580 C.3     1  UNL1        0.0216
     12 C           8.2244   42.0257    9.6875 C.3     1  UNL1        0.0937
     13 N           9.4710   41.5290    9.0947 N.am    1  UNL1       -0.2757
     14 O          10.4242   41.1383   11.1838 O.2     1  UNL1       -0.2694
     15 C          16.3865   42.7699    7.6930 C.2     1  UNL1        0.2260
     16 N          15.1888   42.0785    7.3233 N.am    1  UNL1       -0.2784
     17 O          16.4658   43.3649    8.8017 O.2     1  UNL1       -0.2748
     18 H          15.0583   41.8753    6.3689 H       1  UNL1        0.1553
     19 C          17.5102   42.8765    6.7154 C.3     1  UNL1        0.0768
     20 C          18.2309   44.1994    6.9011 C.3     1  UNL1        0.0096
     21 C          17.2546   44.0281    5.7599 C.3     1  UNL1        0.0096
     22 C          15.4242   39.8469    9.4229 C.1     1  UNL1        0.1019
     23 N          16.3656   39.1967    9.5981 N.1     1  UNL1       -0.1908
@<TRIPOS>BOND
     1     1     6   ar
     2     1     7    1
     3     2     6   ar
     4     2    16    1
     5     3    22    1
     6     3     4   ar
     7     5     4    1
     8    19    15    1
     9    19    20    1
    10    20    21    1
    11    21    19    1
    12     7    13   am
    13     8    13    1
    14     8     9    1
    15     9    10    1
    16    10    11    1
    17    11    12    1
    18    12    13    1
    19    16    15   am
    20     2     3   ar
    21     4     1   ar
    22    15    17    2
    23     7    14    2
    24    22    23    3
    25    16    18    1
@<TRIPOS>MOLECULE
MolPort-001-980-258 350703 CHEMBL1569906 CSSS03436650360 MCULE-6472137387 PubChem-650633 ZINC000000350703
 23 25 0 0 0
SMALL
GASTEIGER

@<TRIPOS>ATOM
      1 C          11.3711   40.5169    9.0056 C.ar    1  UNL1        0.0809
      2 C          13.8799   40.5432    8.9730 C.ar    1  UNL1        0.0903
      3 C          13.3517   39.2576    9.1001 C.ar    1  UNL1        0.0847
      4 C          11.9446   39.2463    9.1373 C.ar    1  UNL1       -0.0001
      5 C          11.1464   37.9871    9.2471 C.3     1  UNL1        0.0325
      6 S          12.6191   41.6426    8.8595 S.2     1  UNL1       -0.0673
      7 C           9.9259   40.8418    9.0500 C.2     1  UNL1        0.2548
      8 C           9.4492   39.9901    6.7203 C.3     1  UNL1        0.0937
      9 C           8.2646   39.0994    6.3399 C.3     1  UNL1        0.0216
     10 C           6.9175   39.8396    6.3402 C.3     1  UNL1        0.0035
     11 C           7.0551   41.3419    6.5832 C.3     1  UNL1        0.0216
     12 C           7.8519   41.5919    7.8619 C.3     1  UNL1        0.0937
     13 N           9.1068   40.8322    7.8678 N.am    1  UNL1       -0.2757
     14 O           9.4047   41.1523   10.1557 O.2     1  UNL1       -0.2694
     15 C          15.7565   41.9326    7.9692 C.2     1  UNL1        0.2260
     16 N          15.2586   40.9064    8.8343 N.am    1  UNL1       -0.2784
     17 O          15.0557   42.3579    7.0113 O.2     1  UNL1       -0.2748
     18 H          15.9150   40.4116    9.3761 H       1  UNL1        0.1553
     19 C          17.1551   42.4275    8.1381 C.3     1  UNL1        0.0768
     20 C          17.1388   43.8307    8.7168 C.3     1  UNL1        0.0096
     21 C          17.3889   43.6287    7.2398 C.3     1  UNL1        0.0096
     22 C          14.1451   38.0531    9.0836 C.1     1  UNL1        0.1019
     23 N          14.7832   37.0875    9.0715 N.1     1  UNL1       -0.1908
@<TRIPOS>BOND
     1     1     6   ar
     2     1     7    1
     3     2     6   ar
     4     2    16    1
     5     3    22    1
     6     3     4   ar
     7     5     4    1
     8    19    15    1
     9    19    20    1
    10    20    21    1
    11    21    19    1
    12     7    13   am
    13     8    13    1
    14     8     9    1
    15     9    10    1
    16    10    11    1
    17    11    12    1
    18    12    13    1
    19    16    15   am
    20     2     3   ar
    21     4     1   ar
    22    15    17    2
    23     7    14    2
    24    22    23    3
    25    16    18    1
