@<TRIPOS>MOLECULE
Molport-053-262-039
 31 34 0 0 0
SMALL
GASTEIGER

@<TRIPOS>ATOM
      1 C          12.0523   40.2381    8.2183 C.ar    1  UNL1        0.0529
      2 C          10.7240   40.2866    7.7615 C.ar    1  UNL1        0.0443
      3 C           9.8621   39.2112    7.9875 C.ar    1  UNL1        0.1415
      4 C          10.3201   38.0719    8.6530 C.ar    1  UNL1        0.0342
      5 C          11.6556   37.9883    9.0787 C.ar    1  UNL1        0.0570
      6 C          12.5140   39.0790    8.8608 C.ar    1  UNL1        0.0193
      7 F           8.5766   39.2731    7.5597 F       1  UNL1       -0.2041
      8 C          12.1527   36.7802    9.7736 C.2     1  UNL1        0.2492
      9 C          13.6304   34.7605    9.4828 C.3     1  UNL1        0.1257
     10 C          14.9260   34.3373    8.7162 C.3     1  UNL1        0.1635
     11 C          15.8465   36.2703    9.7098 C.3     1  UNL1        0.1334
     12 C          16.9579   37.3029    9.7101 C.3     1  UNL1        0.0338
     13 C          16.2543   38.6220   10.1075 C.3     1  UNL1        0.0335
     14 C          14.7369   38.3396   10.0368 C.3     1  UNL1        0.0249
     15 C          14.6358   37.0455    9.2406 C.3     1  UNL1        0.1028
     16 N          13.4484   36.2204    9.4844 N.am    1  UNL1       -0.2727
     17 O          11.4229   36.2272   10.6418 O.2     1  UNL1       -0.2699
     18 O          16.0874   35.1639    8.8694 O.3     1  UNL1       -0.3527
     19 C          16.6689   39.1191   11.5023 C.3     1  UNL1        0.1372
     20 O          15.7331   38.7106   12.4657 O.3     1  UNL1       -0.3820
     21 H          14.8635   39.0822   12.2498 H       1  UNL1        0.2104
     22 C          13.1692   41.9428    6.7117 C.2     1  UNL1        0.2526
     23 N          12.9594   41.3314    7.9963 N.am    1  UNL1       -0.2802
     24 O          12.3892   41.6900    5.7539 O.2     1  UNL1       -0.2697
     25 H          13.4644   41.6805    8.7659 H       1  UNL1        0.1552
     26 C          17.5530   44.3464    6.9584 C.3     1  UNL1        0.1538
     27 C          15.5407   42.8735    7.0312 C.ar    1  UNL1        0.1012
     28 C          14.2635   42.9082    6.5066 C.ar    1  UNL1        0.0932
     29 C          14.2164   44.0639    5.7464 C.ar    1  UNL1        0.1262
     30 N          16.1983   43.9603    6.5861 N.ar    1  UNL1       -0.2472
     31 N          15.4056   44.6939    5.8210 N.ar    1  UNL1       -0.1674
@<TRIPOS>BOND
     1    26    30    1
     2    28    29   ar
     3    28    22    1
     4    22    23   am
     5     2     3   ar
     6     3     7    1
     7     4     5   ar
     8     5     8    1
     9     6     1   ar
    10     8    16   am
    11     9    16    1
    12     9    10    1
    13    10    18    1
    14    11    18    1
    15    11    12    1
    16    12    13    1
    17    13    19    1
    18    13    14    1
    19    19    20    1
    20    15    14    1
    21    15    16    1
    22    15    11    1
    23    30    27   ar
    24    30    31   ar
    25    23     1    1
    26    27    28   ar
    27    29    31   ar
    28    22    24    2
    29     1     2   ar
    30     3     4   ar
    31     5     6   ar
    32     8    17    2
    33    23    25    1
    34    20    21    1
@<TRIPOS>MOLECULE
Molport-053-262-039
 31 34 0 0 0
SMALL
GASTEIGER

@<TRIPOS>ATOM
      1 C          10.9711   41.0395    5.4846 C.ar    1  UNL1        0.0529
      2 C          10.8252   39.6999    5.0851 C.ar    1  UNL1        0.0443
      3 C           9.5740   39.0817    5.1378 C.ar    1  UNL1        0.1415
      4 C           8.4621   39.7855    5.6059 C.ar    1  UNL1        0.0342
      5 C           8.5972   41.1110    6.0495 C.ar    1  UNL1        0.0570
      6 C           9.8557   41.7318    5.9809 C.ar    1  UNL1        0.0193
      7 F           9.4379   37.7944    4.7333 F       1  UNL1       -0.2041
      8 C           7.4272   41.8601    6.5584 C.2     1  UNL1        0.2492
      9 C           5.4182   41.6656    8.0663 C.3     1  UNL1        0.1257
     10 C           4.9812   40.9263    9.3731 C.3     1  UNL1        0.1635
     11 C           6.9678   41.8424   10.2594 C.3     1  UNL1        0.1334
     12 C           8.0152   41.8058   11.3562 C.3     1  UNL1        0.0338
     13 C           9.3398   42.1418   10.6314 C.3     1  UNL1        0.0335
     14 C           9.0330   42.0734    9.1186 C.3     1  UNL1        0.0249
     15 C           7.7049   41.3326    9.0413 C.3     1  UNL1        0.1028
     16 N           6.8741   41.6036    7.8638 N.am    1  UNL1       -0.2727
     17 O           6.9013   42.7464    5.8303 O.2     1  UNL1       -0.2699
     18 O           5.8301   41.0516   10.5217 O.3     1  UNL1       -0.3527
     19 C           9.9019   43.5168   11.0290 C.3     1  UNL1        0.1372
     20 O           8.8570   44.4020   11.3380 O.3     1  UNL1       -0.3820
     21 H           8.2868   44.5129   10.5612 H       1  UNL1        0.2104
     22 C          12.8739   42.2974    6.5892 C.2     1  UNL1        0.2526
     23 N          12.2488   41.6974    5.4414 N.am    1  UNL1       -0.2802
     24 O          12.4249   42.0731    7.7458 O.2     1  UNL1       -0.2697
     25 H          12.7216   41.7394    4.5789 H       1  UNL1        0.1552
     26 C          17.4880   44.1913    7.0126 C.3     1  UNL1        0.1538
     27 C          15.3240   42.9498    6.9932 C.ar    1  UNL1        0.1012
     28 C          14.0734   43.1403    6.4391 C.ar    1  UNL1        0.0932
     29 C          14.1750   44.3139    5.7124 C.ar    1  UNL1        0.1262
     30 N          16.1096   43.9683    6.5964 N.ar    1  UNL1       -0.2472
     31 N          15.4240   44.8056    5.8343 N.ar    1  UNL1       -0.1674
@<TRIPOS>BOND
     1    26    30    1
     2    28    29   ar
     3    28    22    1
     4    22    23   am
     5     2     3   ar
     6     3     7    1
     7     4     5   ar
     8     5     8    1
     9     6     1   ar
    10     8    16   am
    11     9    16    1
    12     9    10    1
    13    10    18    1
    14    11    18    1
    15    11    12    1
    16    12    13    1
    17    13    19    1
    18    13    14    1
    19    19    20    1
    20    15    14    1
    21    15    16    1
    22    15    11    1
    23    30    27   ar
    24    30    31   ar
    25    23     1    1
    26    27    28   ar
    27    29    31   ar
    28    22    24    2
    29     1     2   ar
    30     3     4   ar
    31     5     6   ar
    32     8    17    2
    33    23    25    1
    34    20    21    1
@<TRIPOS>MOLECULE
Molport-053-262-039
 31 34 0 0 0
SMALL
GASTEIGER

@<TRIPOS>ATOM
      1 C          11.3486   40.6549    5.2848 C.ar    1  UNL1        0.0529
      2 C          10.5834   40.4348    4.1266 C.ar    1  UNL1        0.0443
      3 C           9.5327   39.5148    4.1412 C.ar    1  UNL1        0.1415
      4 C           9.2471   38.7933    5.3025 C.ar    1  UNL1        0.0342
      5 C          10.0278   38.9689    6.4564 C.ar    1  UNL1        0.0570
      6 C          11.0746   39.9059    6.4396 C.ar    1  UNL1        0.0193
      7 F           8.7874   39.3213    3.0248 F       1  UNL1       -0.2041
      8 C           9.7401   38.2000    7.6873 C.2     1  UNL1        0.2492
      9 C          10.8409   37.0077    9.6145 C.3     1  UNL1        0.1257
     10 C          12.1408   37.0960   10.4792 C.3     1  UNL1        0.1635
     11 C          11.4961   39.3478   10.7708 C.3     1  UNL1        0.1334
     12 C          11.9011   40.7519   11.1781 C.3     1  UNL1        0.0338
     13 C          11.1146   41.6715   10.2144 C.3     1  UNL1        0.0335
     14 C          10.5234   40.7494    9.1248 C.3     1  UNL1        0.0249
     15 C          11.3022   39.4495    9.2744 C.3     1  UNL1        0.1028
     16 N          10.6275   38.2287    8.8220 N.am    1  UNL1       -0.2727
     17 O           8.6904   37.5021    7.7442 O.2     1  UNL1       -0.2699
     18 O          12.4506   38.3583   11.0844 O.3     1  UNL1       -0.3527
     19 C          10.0149   42.4761   10.9269 C.3     1  UNL1        0.1372
     20 O           9.0846   41.6109   11.5244 O.3     1  UNL1       -0.3820
     21 H           8.6720   41.0586   10.8420 H       1  UNL1        0.2104
     22 C          13.3453   41.7489    6.3983 C.2     1  UNL1        0.2526
     23 N          12.4364   41.5950    5.2944 N.am    1  UNL1       -0.2802
     24 O          13.3638   40.8975    7.3280 O.2     1  UNL1       -0.2697
     25 H          12.5661   42.1646    4.5020 H       1  UNL1        0.1552
     26 C          17.3557   44.6041    7.3037 C.3     1  UNL1        0.1538
     27 C          15.5630   42.8967    6.9951 C.ar    1  UNL1        0.1012
     28 C          14.2997   42.8709    6.4374 C.ar    1  UNL1        0.0932
     29 C          14.1045   44.1422    5.9260 C.ar    1  UNL1        0.1262
     30 N          16.0713   44.1287    6.8065 N.ar    1  UNL1       -0.2472
     31 N          15.1953   44.8939    6.1747 N.ar    1  UNL1       -0.1674
@<TRIPOS>BOND
     1    26    30    1
     2    28    29   ar
     3    28    22    1
     4    22    23   am
     5     2     3   ar
     6     3     7    1
     7     4     5   ar
     8     5     8    1
     9     6     1   ar
    10     8    16   am
    11     9    16    1
    12     9    10    1
    13    10    18    1
    14    11    18    1
    15    11    12    1
    16    12    13    1
    17    13    19    1
    18    13    14    1
    19    19    20    1
    20    15    14    1
    21    15    16    1
    22    15    11    1
    23    30    27   ar
    24    30    31   ar
    25    23     1    1
    26    27    28   ar
    27    29    31   ar
    28    22    24    2
    29     1     2   ar
    30     3     4   ar
    31     5     6   ar
    32     8    17    2
    33    23    25    1
    34    20    21    1
@<TRIPOS>MOLECULE
Molport-053-262-039
 31 34 0 0 0
SMALL
GASTEIGER

@<TRIPOS>ATOM
      1 C          10.5538   41.6913    9.6239 C.ar    1  UNL1        0.0529
      2 C          11.2798   40.9582   10.5783 C.ar    1  UNL1        0.0443
      3 C          12.5933   40.5643   10.3133 C.ar    1  UNL1        0.1415
      4 C          13.1880   40.8804    9.0898 C.ar    1  UNL1        0.0342
      5 C          12.4635   41.5750    8.1077 C.ar    1  UNL1        0.0570
      6 C          11.1474   41.9807    8.3855 C.ar    1  UNL1        0.0193
      7 F          13.2935   39.8729   11.2466 F       1  UNL1       -0.2041
      8 C          13.0816   41.9034    6.8041 C.2     1  UNL1        0.2492
      9 C          14.1211   43.7857    5.4911 C.3     1  UNL1        0.1257
     10 C          14.9541   45.0862    5.7362 C.3     1  UNL1        0.1635
     11 C          16.3735   43.6493    6.9576 C.3     1  UNL1        0.1334
     12 C          17.4834   43.5162    7.9832 C.3     1  UNL1        0.0338
     13 C          17.1259   42.2326    8.7691 C.3     1  UNL1        0.0335
     14 C          15.6885   41.8548    8.3470 C.3     1  UNL1        0.0249
     15 C          15.1551   43.1127    7.6749 C.3     1  UNL1        0.1028
     16 N          14.0933   42.9218    6.6817 N.am    1  UNL1       -0.2727
     17 O          12.7130   41.2748    5.7740 O.2     1  UNL1       -0.2699
     18 O          16.1516   44.9700    6.5160 O.3     1  UNL1       -0.3527
     19 C          18.1102   41.0812    8.5047 C.3     1  UNL1        0.1372
     20 O          18.1704   40.2240    9.6149 O.3     1  UNL1       -0.3820
     21 H          18.4751   40.7205   10.3906 H       1  UNL1        0.2104
     22 C           8.0655   41.5928    9.1530 C.2     1  UNL1        0.2526
     23 N           9.1999   42.1066    9.8722 N.am    1  UNL1       -0.2802
     24 O           8.1884   40.5768    8.4166 O.2     1  UNL1       -0.2697
     25 H           9.0407   42.7796   10.5730 H       1  UNL1        0.1552
     26 C           3.2465   42.4005   10.2396 C.3     1  UNL1        0.1538
     27 C           5.6108   41.6798    9.9007 C.ar    1  UNL1        0.1012
     28 C           6.7362   42.2111    9.3018 C.ar    1  UNL1        0.0932
     29 C           6.3488   43.4604    8.8489 C.ar    1  UNL1        0.1262
     30 N           4.6227   42.5882    9.7996 N.ar    1  UNL1       -0.2472
     31 N           5.0515   43.6616    9.1546 N.ar    1  UNL1       -0.1674
@<TRIPOS>BOND
     1    26    30    1
     2    28    29   ar
     3    28    22    1
     4    22    23   am
     5     2     3   ar
     6     3     7    1
     7     4     5   ar
     8     5     8    1
     9     6     1   ar
    10     8    16   am
    11     9    16    1
    12     9    10    1
    13    10    18    1
    14    11    18    1
    15    11    12    1
    16    12    13    1
    17    13    19    1
    18    13    14    1
    19    19    20    1
    20    15    14    1
    21    15    16    1
    22    15    11    1
    23    30    27   ar
    24    30    31   ar
    25    23     1    1
    26    27    28   ar
    27    29    31   ar
    28    22    24    2
    29     1     2   ar
    30     3     4   ar
    31     5     6   ar
    32     8    17    2
    33    23    25    1
    34    20    21    1
@<TRIPOS>MOLECULE
Molport-053-262-039
 31 34 0 0 0
SMALL
GASTEIGER

@<TRIPOS>ATOM
      1 C          12.8227   40.9858    9.0539 C.ar    1  UNL1        0.0529
      2 C          13.0577   39.6286    9.3336 C.ar    1  UNL1        0.0443
      3 C          12.0621   38.8494    9.9271 C.ar    1  UNL1        0.1415
      4 C          10.8321   39.4189   10.2641 C.ar    1  UNL1        0.0342
      5 C          10.5949   40.7832   10.0314 C.ar    1  UNL1        0.0570
      6 C          11.5952   41.5585    9.4212 C.ar    1  UNL1        0.0193
      7 F          12.2901   37.5361   10.1771 F       1  UNL1       -0.2041
      8 C           9.2993   41.3976   10.3963 C.2     1  UNL1        0.2492
      9 C           7.8410   43.4089    9.9774 C.3     1  UNL1        0.1257
     10 C           7.5209   44.4263    8.8338 C.3     1  UNL1        0.1635
     11 C           7.1527   42.4827    7.5462 C.3     1  UNL1        0.1334
     12 C           7.0100   41.8712    6.1652 C.3     1  UNL1        0.0338
     13 C           7.6725   40.4792    6.2930 C.3     1  UNL1        0.0335
     14 C           8.4100   40.4757    7.6507 C.3     1  UNL1        0.0249
     15 C           8.4767   41.9458    8.0419 C.3     1  UNL1        0.1028
     16 N           8.5736   42.2357    9.4761 N.am    1  UNL1       -0.2727
     17 O           8.8182   41.1812   11.5425 O.2     1  UNL1       -0.2699
     18 O           7.1508   43.8928    7.5556 O.3     1  UNL1       -0.3527
     19 C           6.6573   39.3279    6.2021 C.3     1  UNL1        0.1372
     20 O           5.3790   39.8249    5.9024 O.3     1  UNL1       -0.3820
     21 H           5.0962   40.4333    6.6031 H       1  UNL1        0.2104
     22 C          13.6732   42.4481    7.1667 C.2     1  UNL1        0.2526
     23 N          13.8321   41.8091    8.4452 N.am    1  UNL1       -0.2802
     24 O          12.5387   42.4968    6.6186 O.2     1  UNL1       -0.2697
     25 H          14.6784   41.9427    8.9302 H       1  UNL1        0.1552
     26 C          18.2238   44.2587    6.1328 C.3     1  UNL1        0.1538
     27 C          16.1213   43.1894    6.9455 C.ar    1  UNL1        0.1012
     28 C          14.8169   43.0968    6.5014 C.ar    1  UNL1        0.0932
     29 C          14.8002   43.7625    5.2880 C.ar    1  UNL1        0.1262
     30 N          16.8227   43.8745    6.0233 N.ar    1  UNL1       -0.2472
     31 N          16.0336   44.2379    5.0246 N.ar    1  UNL1       -0.1674
@<TRIPOS>BOND
     1    26    30    1
     2    28    29   ar
     3    28    22    1
     4    22    23   am
     5     2     3   ar
     6     3     7    1
     7     4     5   ar
     8     5     8    1
     9     6     1   ar
    10     8    16   am
    11     9    16    1
    12     9    10    1
    13    10    18    1
    14    11    18    1
    15    11    12    1
    16    12    13    1
    17    13    19    1
    18    13    14    1
    19    19    20    1
    20    15    14    1
    21    15    16    1
    22    15    11    1
    23    30    27   ar
    24    30    31   ar
    25    23     1    1
    26    27    28   ar
    27    29    31   ar
    28    22    24    2
    29     1     2   ar
    30     3     4   ar
    31     5     6   ar
    32     8    17    2
    33    23    25    1
    34    20    21    1
@<TRIPOS>MOLECULE
Molport-053-262-039
 31 34 0 0 0
SMALL
GASTEIGER

@<TRIPOS>ATOM
      1 C          11.6895   41.3839    5.5662 C.ar    1  UNL1        0.0529
      2 C          11.1625   40.7975    4.4026 C.ar    1  UNL1        0.0443
      3 C           9.9668   40.0779    4.4562 C.ar    1  UNL1        0.1415
      4 C           9.2959   39.9202    5.6711 C.ar    1  UNL1        0.0342
      5 C           9.8295   40.4626    6.8513 C.ar    1  UNL1        0.0570
      6 C          11.0254   41.1973    6.7884 C.ar    1  UNL1        0.0193
      7 F           9.4553   39.5306    3.3257 F       1  UNL1       -0.2041
      8 C           9.1319   40.2900    8.1447 C.2     1  UNL1        0.2492
      9 C           9.0644   41.1314   10.5185 C.3     1  UNL1        0.1257
     10 C           9.3339   42.4464   11.3206 C.3     1  UNL1        0.1635
     11 C           7.8700   43.4147    9.7424 C.3     1  UNL1        0.1334
     12 C           7.3466   44.6813    9.0919 C.3     1  UNL1        0.0338
     13 C           7.1021   44.2812    7.6178 C.3     1  UNL1        0.0335
     14 C           7.7619   42.8965    7.4316 C.3     1  UNL1        0.0249
     15 C           8.6710   42.7513    8.6446 C.3     1  UNL1        0.1028
     16 N           8.9758   41.3820    9.0715 N.am    1  UNL1       -0.2727
     17 O           8.6617   39.1577    8.4425 O.2     1  UNL1       -0.2699
     18 O           8.6727   43.6397   10.8798 O.3     1  UNL1       -0.3527
     19 C           5.6089   44.2456    7.2521 C.3     1  UNL1        0.1372
     20 O           4.8487   44.8999    8.2344 O.3     1  UNL1       -0.3820
     21 H           4.9698   44.4540    9.0872 H       1  UNL1        0.2104
     22 C          13.8722   42.1323    6.6144 C.2     1  UNL1        0.2526
     23 N          12.9195   42.1277    5.5371 N.am    1  UNL1       -0.2802
     24 O          13.7738   41.2947    7.5517 O.2     1  UNL1       -0.2697
     25 H          13.1206   42.6632    4.7358 H       1  UNL1        0.1552
     26 C          18.2611   44.3582    7.5301 C.3     1  UNL1        0.1538
     27 C          16.2199   42.9502    7.2558 C.ar    1  UNL1        0.1012
     28 C          15.0023   43.0780    6.6166 C.ar    1  UNL1        0.0932
     29 C          15.0562   44.3051    5.9785 C.ar    1  UNL1        0.1262
     30 N          16.9421   44.0547    6.9908 N.ar    1  UNL1       -0.2472
     31 N          16.2456   44.8863    6.2323 N.ar    1  UNL1       -0.1674
@<TRIPOS>BOND
     1    26    30    1
     2    28    29   ar
     3    28    22    1
     4    22    23   am
     5     2     3   ar
     6     3     7    1
     7     4     5   ar
     8     5     8    1
     9     6     1   ar
    10     8    16   am
    11     9    16    1
    12     9    10    1
    13    10    18    1
    14    11    18    1
    15    11    12    1
    16    12    13    1
    17    13    19    1
    18    13    14    1
    19    19    20    1
    20    15    14    1
    21    15    16    1
    22    15    11    1
    23    30    27   ar
    24    30    31   ar
    25    23     1    1
    26    27    28   ar
    27    29    31   ar
    28    22    24    2
    29     1     2   ar
    30     3     4   ar
    31     5     6   ar
    32     8    17    2
    33    23    25    1
    34    20    21    1
@<TRIPOS>MOLECULE
Molport-053-262-039
 31 34 0 0 0
SMALL
GASTEIGER

@<TRIPOS>ATOM
      1 C          13.9544   36.3988    9.0449 C.ar    1  UNL1        0.0529
      2 C          13.0713   35.6192    9.8116 C.ar    1  UNL1        0.0443
      3 C          11.9716   36.2106   10.4371 C.ar    1  UNL1        0.1415
      4 C          11.7523   37.5850   10.3201 C.ar    1  UNL1        0.0342
      5 C          12.6477   38.3865    9.5936 C.ar    1  UNL1        0.0570
      6 C          13.7444   37.7836    8.9552 C.ar    1  UNL1        0.0193
      7 F          11.1139   35.4485   11.1601 F       1  UNL1       -0.2041
      8 C          12.4300   39.8452    9.4746 C.2     1  UNL1        0.2492
      9 C          12.8681   41.8264    7.9811 C.3     1  UNL1        0.1257
     10 C          13.0350   42.1540    6.4612 C.3     1  UNL1        0.1635
     11 C          10.9788   41.0156    6.2446 C.3     1  UNL1        0.1334
     12 C           9.9938   40.3173    5.3261 C.3     1  UNL1        0.0338
     13 C           9.4275   39.1597    6.1818 C.3     1  UNL1        0.0335
     14 C          10.3186   39.0787    7.4415 C.3     1  UNL1        0.0249
     15 C          11.5536   39.8912    7.0766 C.3     1  UNL1        0.1028
     16 N          12.2953   40.4877    8.1921 N.am    1  UNL1       -0.2727
     17 O          12.3600   40.5433   10.5233 O.2     1  UNL1       -0.2699
     18 O          12.0030   41.7114    5.5698 O.3     1  UNL1       -0.3527
     19 C           7.9489   39.3632    6.5517 C.3     1  UNL1        0.1372
     20 O           7.1304   39.1527    5.4308 O.3     1  UNL1       -0.3820
     21 H           7.3660   39.7860    4.7348 H       1  UNL1        0.2104
     22 C          16.4452   35.9676    8.8623 C.2     1  UNL1        0.2526
     23 N          15.0945   35.8138    8.3930 N.am    1  UNL1       -0.2802
     24 O          16.6680   36.4430   10.0087 O.2     1  UNL1       -0.2697
     25 H          14.9422   35.2785    7.5809 H       1  UNL1        0.1552
     26 C          19.2964   33.6204    5.4835 C.3     1  UNL1        0.1538
     27 C          17.5825   34.6244    6.9931 C.ar    1  UNL1        0.1012
     28 C          17.5842   35.5292    8.0366 C.ar    1  UNL1        0.0932
     29 C          18.9013   35.9366    8.1595 C.ar    1  UNL1        0.1262
     30 N          18.8440   34.5220    6.5348 N.ar    1  UNL1       -0.2472
     31 N          19.6518   35.2985    7.2395 N.ar    1  UNL1       -0.1674
@<TRIPOS>BOND
     1    26    30    1
     2    28    29   ar
     3    28    22    1
     4    22    23   am
     5     2     3   ar
     6     3     7    1
     7     4     5   ar
     8     5     8    1
     9     6     1   ar
    10     8    16   am
    11     9    16    1
    12     9    10    1
    13    10    18    1
    14    11    18    1
    15    11    12    1
    16    12    13    1
    17    13    19    1
    18    13    14    1
    19    19    20    1
    20    15    14    1
    21    15    16    1
    22    15    11    1
    23    30    27   ar
    24    30    31   ar
    25    23     1    1
    26    27    28   ar
    27    29    31   ar
    28    22    24    2
    29     1     2   ar
    30     3     4   ar
    31     5     6   ar
    32     8    17    2
    33    23    25    1
    34    20    21    1
@<TRIPOS>MOLECULE
Molport-053-262-039
 31 34 0 0 0
SMALL
GASTEIGER

@<TRIPOS>ATOM
      1 C          11.8633   40.8867    6.4226 C.ar    1  UNL1        0.0529
      2 C          10.7890   40.6363    5.5515 C.ar    1  UNL1        0.0443
      3 C           9.7365   39.8098    5.9510 C.ar    1  UNL1        0.1415
      4 C           9.7537   39.2111    7.2128 C.ar    1  UNL1        0.0342
      5 C          10.8391   39.4156    8.0799 C.ar    1  UNL1        0.0570
      6 C          11.8882   40.2592    7.6777 C.ar    1  UNL1        0.0193
      7 F           8.6947   39.5877    5.1116 F       1  UNL1       -0.2041
      8 C          10.8715   38.7756    9.4135 C.2     1  UNL1        0.2492
      9 C          11.2549   36.5737   10.5763 C.3     1  UNL1        0.1257
     10 C          12.0900   35.2642   10.3944 C.3     1  UNL1        0.1635
     11 C          13.9098   36.7510   10.1737 C.3     1  UNL1        0.1334
     12 C          15.3418   36.9616    9.7191 C.3     1  UNL1        0.0338
     13 C          15.3576   38.4042    9.1610 C.3     1  UNL1        0.0335
     14 C          13.8799   38.8443    9.0614 C.3     1  UNL1        0.0249
     15 C          13.0957   37.5441    9.1761 C.3     1  UNL1        0.1028
     16 N          11.7273   37.6506    9.6922 N.am    1  UNL1       -0.2727
     17 O          10.1308   39.2275   10.3297 O.2     1  UNL1       -0.2699
     18 O          13.5024   35.4011   10.1898 O.3     1  UNL1       -0.3527
     19 C          16.1738   39.3702   10.0357 C.3     1  UNL1        0.1372
     20 O          16.5981   40.4749    9.2804 O.3     1  UNL1       -0.3820
     21 H          17.1578   40.1706    8.5489 H       1  UNL1        0.2104
     22 C          14.0133   42.1297    6.9278 C.2     1  UNL1        0.2526
     23 N          12.9592   41.7323    6.0339 N.am    1  UNL1       -0.2802
     24 O          14.1433   41.5634    8.0468 O.2     1  UNL1       -0.2697
     25 H          12.9898   42.0569    5.1050 H       1  UNL1        0.1552
     26 C          18.2342   44.7270    6.2249 C.3     1  UNL1        0.1538
     27 C          16.3570   43.1504    6.6884 C.ar    1  UNL1        0.1012
     28 C          14.9847   43.1655    6.5338 C.ar    1  UNL1        0.0932
     29 C          14.7018   44.3809    5.9350 C.ar    1  UNL1        0.1262
     30 N          16.8397   44.3058    6.1945 N.ar    1  UNL1       -0.2472
     31 N          15.8495   45.0629    5.7495 N.ar    1  UNL1       -0.1674
@<TRIPOS>BOND
     1    26    30    1
     2    28    29   ar
     3    28    22    1
     4    22    23   am
     5     2     3   ar
     6     3     7    1
     7     4     5   ar
     8     5     8    1
     9     6     1   ar
    10     8    16   am
    11     9    16    1
    12     9    10    1
    13    10    18    1
    14    11    18    1
    15    11    12    1
    16    12    13    1
    17    13    19    1
    18    13    14    1
    19    19    20    1
    20    15    14    1
    21    15    16    1
    22    15    11    1
    23    30    27   ar
    24    30    31   ar
    25    23     1    1
    26    27    28   ar
    27    29    31   ar
    28    22    24    2
    29     1     2   ar
    30     3     4   ar
    31     5     6   ar
    32     8    17    2
    33    23    25    1
    34    20    21    1
@<TRIPOS>MOLECULE
Molport-053-262-039
 31 34 0 0 0
SMALL
GASTEIGER

@<TRIPOS>ATOM
      1 C          10.0333   41.2138    6.9758 C.ar    1  UNL1        0.0529
      2 C           9.2739   40.3384    6.1806 C.ar    1  UNL1        0.0443
      3 C           7.9063   40.5573    6.0013 C.ar    1  UNL1        0.1415
      4 C           7.2800   41.6377    6.6268 C.ar    1  UNL1        0.0342
      5 C           8.0142   42.4979    7.4592 C.ar    1  UNL1        0.0570
      6 C           9.3924   42.2807    7.6244 C.ar    1  UNL1        0.0193
      7 F           7.1839   39.7185    5.2178 F       1  UNL1       -0.2041
      8 C           7.3566   43.6378    8.1355 C.2     1  UNL1        0.2492
      9 C           5.2501   45.0199    8.1525 C.3     1  UNL1        0.1257
     10 C           3.7231   44.8612    7.8556 C.3     1  UNL1        0.1635
     11 C           3.8787   43.0305    9.3374 C.3     1  UNL1        0.1334
     12 C           3.2536   41.7506    9.8595 C.3     1  UNL1        0.0338
     13 C           4.4589   40.8207   10.1340 C.3     1  UNL1        0.0335
     14 C           5.6864   41.5046    9.4916 C.3     1  UNL1        0.0249
     15 C           5.0857   42.5510    8.5626 C.3     1  UNL1        0.1028
     16 N           5.9237   43.7167    8.2642 N.am    1  UNL1       -0.2727
     17 O           8.0694   44.5637    8.6118 O.2     1  UNL1       -0.2699
     18 O           3.0269   43.7937    8.5124 O.3     1  UNL1       -0.3527
     19 C           4.6803   40.5629   11.6337 C.3     1  UNL1        0.1372
     20 O           4.0510   39.3700   12.0235 O.3     1  UNL1       -0.3820
     21 H           3.0977   39.4383   11.8580 H       1  UNL1        0.2104
     22 C          12.0494   40.8760    8.4740 C.2     1  UNL1        0.2526
     23 N          11.4421   41.0087    7.1772 N.am    1  UNL1       -0.2802
     24 O          11.3313   40.7074    9.4965 O.2     1  UNL1       -0.2697
     25 H          12.0227   40.9563    6.3839 H       1  UNL1        0.1552
     26 C          16.7284   39.8451    9.9231 C.3     1  UNL1        0.1538
     27 C          14.2992   40.0457    9.3910 C.ar    1  UNL1        0.1012
     28 C          13.5154   40.8849    8.6238 C.ar    1  UNL1        0.0932
     29 C          14.4035   41.7612    8.0244 C.ar    1  UNL1        0.1262
     30 N          15.5819   40.4222    9.2337 N.ar    1  UNL1       -0.2472
     31 N          15.6569   41.4652    8.4222 N.ar    1  UNL1       -0.1674
@<TRIPOS>BOND
     1    26    30    1
     2    28    29   ar
     3    28    22    1
     4    22    23   am
     5     2     3   ar
     6     3     7    1
     7     4     5   ar
     8     5     8    1
     9     6     1   ar
    10     8    16   am
    11     9    16    1
    12     9    10    1
    13    10    18    1
    14    11    18    1
    15    11    12    1
    16    12    13    1
    17    13    19    1
    18    13    14    1
    19    19    20    1
    20    15    14    1
    21    15    16    1
    22    15    11    1
    23    30    27   ar
    24    30    31   ar
    25    23     1    1
    26    27    28   ar
    27    29    31   ar
    28    22    24    2
    29     1     2   ar
    30     3     4   ar
    31     5     6   ar
    32     8    17    2
    33    23    25    1
    34    20    21    1
@<TRIPOS>MOLECULE
Molport-053-262-039
 31 34 0 0 0
SMALL
GASTEIGER

@<TRIPOS>ATOM
      1 C          11.2903   38.6075    9.2053 C.ar    1  UNL1        0.0529
      2 C          10.9649   37.3771    9.8017 C.ar    1  UNL1        0.0443
      3 C          11.9721   36.5491   10.3024 C.ar    1  UNL1        0.1415
      4 C          13.3116   36.9302   10.1969 C.ar    1  UNL1        0.0342
      5 C          13.6582   38.1359    9.5660 C.ar    1  UNL1        0.0570
      6 C          12.6397   38.9710    9.0769 C.ar    1  UNL1        0.0193
      7 F          11.6488   35.3718   10.8928 F       1  UNL1       -0.2041
      8 C          15.0754   38.5417    9.4390 C.2     1  UNL1        0.2492
      9 C          17.4026   37.9859   10.2280 C.3     1  UNL1        0.1257
     10 C          18.2381   36.7442   10.6814 C.3     1  UNL1        0.1635
     11 C          17.4863   35.8081    8.6492 C.3     1  UNL1        0.1334
     12 C          17.2795   34.5573    7.8161 C.3     1  UNL1        0.0338
     13 C          15.9597   34.8198    7.0532 C.3     1  UNL1        0.0335
     14 C          15.3316   36.0759    7.6974 C.3     1  UNL1        0.0249
     15 C          16.0816   36.2338    9.0133 C.3     1  UNL1        0.1028
     16 N          16.1493   37.5898    9.5672 N.am    1  UNL1       -0.2727
     17 O          15.3496   39.7523    9.2120 O.2     1  UNL1       -0.2699
     18 O          18.2633   35.6070    9.8086 O.3     1  UNL1       -0.3527
     19 C          16.1751   35.0111    5.5427 C.3     1  UNL1        0.1372
     20 O          14.9454   34.9857    4.8658 O.3     1  UNL1       -0.3820
     21 H          14.5138   34.1293    5.0115 H       1  UNL1        0.2104
     22 C           9.3287   39.0777    7.6710 C.2     1  UNL1        0.2526
     23 N          10.2719   39.4763    8.6808 N.am    1  UNL1       -0.2802
     24 O           9.2098   37.8619    7.3586 O.2     1  UNL1       -0.2697
     25 H          10.2172   40.3943    9.0321 H       1  UNL1        0.1552
     26 C           6.9282   43.3083    6.4899 C.3     1  UNL1        0.1538
     27 C           8.3319   41.4162    7.3107 C.ar    1  UNL1        0.1012
     28 C           8.4546   40.0711    7.0224 C.ar    1  UNL1        0.0932
     29 C           7.5617   39.8398    5.9904 C.ar    1  UNL1        0.1262
     30 N           7.4118   41.9340    6.4758 N.ar    1  UNL1       -0.2472
     31 N           6.9294   40.9899    5.6834 N.ar    1  UNL1       -0.1674
@<TRIPOS>BOND
     1    26    30    1
     2    28    29   ar
     3    28    22    1
     4    22    23   am
     5     2     3   ar
     6     3     7    1
     7     4     5   ar
     8     5     8    1
     9     6     1   ar
    10     8    16   am
    11     9    16    1
    12     9    10    1
    13    10    18    1
    14    11    18    1
    15    11    12    1
    16    12    13    1
    17    13    19    1
    18    13    14    1
    19    19    20    1
    20    15    14    1
    21    15    16    1
    22    15    11    1
    23    30    27   ar
    24    30    31   ar
    25    23     1    1
    26    27    28   ar
    27    29    31   ar
    28    22    24    2
    29     1     2   ar
    30     3     4   ar
    31     5     6   ar
    32     8    17    2
    33    23    25    1
    34    20    21    1
