@<TRIPOS>MOLECULE
MolPort-039-210-473 CSSS03436999701 MCULE-9158305354 PubChem-121017026
 24 26 0 0 0
SMALL
GASTEIGER

@<TRIPOS>ATOM
      1 C          11.4156   40.9307    9.7648 C.ar    1  UNL1        0.1043
      2 C          10.6121   41.9080   10.3047 C.ar    1  UNL1        0.1125
      3 C          10.6221   40.1017    8.9946 C.ar    1  UNL1        0.1375
      4 N           9.3737   41.6496    9.8498 N.ar    1  UNL1       -0.2456
      5 N           9.3639   40.5773    9.0730 N.ar    1  UNL1       -0.1662
      6 N          12.8217   40.8097    9.9796 N.pl3   1  UNL1       -0.2118
      7 H          13.1930   41.0854   10.8487 H       1  UNL1        0.1738
      8 O          15.0667   39.5130    9.4252 O.2     1  UNL1       -0.1498
      9 O          13.1571   39.2202    7.9031 O.2     1  UNL1       -0.1498
     10 S          13.8994   40.1968    8.7711 S.O2    1  UNL1        0.0776
     11 C          16.8335   41.8641    8.7859 C.3     1  UNL1        0.0769
     12 C          15.7086   42.1724    7.8612 C.ar    1  UNL1        0.1732
     13 C          14.4893   41.5331    7.7901 C.ar    1  UNL1        0.1744
     14 C          13.8189   42.2090    6.7931 C.ar    1  UNL1        0.1195
     15 C          12.4338   41.9460    6.3150 C.3     1  UNL1        0.0571
     16 N          14.6079   43.1851    6.3043 N.ar    1  UNL1       -0.0803
     17 O          15.7294   43.1328    6.9660 O.2     1  UNL1       -0.3567
     18 C           8.1845   42.4175   10.1828 C.3     1  UNL1        0.1569
     19 C           6.9378   41.5596   10.0353 C.3     1  UNL1        0.1395
     20 C           6.2403   41.3855   11.3964 C.3     1  UNL1        0.0317
     21 C           4.7230   41.5515   11.2795 C.3     1  UNL1        0.0051
     22 C           4.1817   40.9047   10.0020 C.3     1  UNL1        0.0322
     23 C           5.1026   41.1644    8.7985 C.3     1  UNL1        0.1421
     24 O           6.0725   42.1413    9.0913 O.3     1  UNL1       -0.3542
@<TRIPOS>BOND
     1    11    12    1
     2    12    17   ar
     3    13    14   ar
     4    15    14    1
     5     2     4   ar
     6    18     4    1
     7    19    18    1
     8    19    20    1
     9    19    24    1
    10    20    21    1
    11    21    22    1
    12    22    23    1
    13    23    24    1
    14     3     1   ar
    15    16    17   ar
    16     6     1    1
    17     4     5   ar
    18    10    13    1
    19    10     6    1
    20    12    13   ar
    21    14    16   ar
    22     1     2   ar
    23     3     5   ar
    24    10     8    2
    25    10     9    2
    26     6     7    1
@<TRIPOS>MOLECULE
MolPort-039-210-473 CSSS03436999701 MCULE-9158305354 PubChem-121017026
 24 26 0 0 0
SMALL
GASTEIGER

@<TRIPOS>ATOM
      1 C           8.6289   43.3468    9.4164 C.ar    1  UNL1        0.1043
      2 C           9.0685   42.3585    8.5667 C.ar    1  UNL1        0.1125
      3 C           9.7265   43.8561   10.0845 C.ar    1  UNL1        0.1375
      4 N          10.4007   42.3006    8.7383 N.ar    1  UNL1       -0.2456
      5 N          10.8052   43.1823    9.6397 N.ar    1  UNL1       -0.1662
      6 N           7.2699   43.7561    9.5695 N.pl3   1  UNL1       -0.2118
      7 H           7.0784   44.5855   10.0641 H       1  UNL1        0.1738
      8 O           4.8611   43.7853    8.4625 O.2     1  UNL1       -0.1498
      9 O           6.4353   42.0317    7.7582 O.2     1  UNL1       -0.1498
     10 S           5.9453   42.8505    8.9192 S.O2    1  UNL1        0.0776
     11 C           7.3456   41.5633   11.7068 C.3     1  UNL1        0.0769
     12 C           5.9451   41.2934   11.2812 C.ar    1  UNL1        0.1732
     13 C           5.3033   41.7875   10.1656 C.ar    1  UNL1        0.1744
     14 C           4.0466   41.2245   10.2303 C.ar    1  UNL1        0.1195
     15 C           2.9394   41.4034    9.2515 C.3     1  UNL1        0.0571
     16 N           3.9583   40.4497   11.3286 N.ar    1  UNL1       -0.0803
     17 O           5.1113   40.5156   11.9325 O.2     1  UNL1       -0.3567
     18 C          11.2914   41.3758    8.0559 C.3     1  UNL1        0.1569
     19 C          12.7425   41.7720    8.2775 C.3     1  UNL1        0.1395
     20 C          13.3961   40.8560    9.3278 C.3     1  UNL1        0.0317
     21 C          14.7988   40.4165    8.9001 C.3     1  UNL1        0.0051
     22 C          15.5670   41.5575    8.2283 C.3     1  UNL1        0.0322
     23 C          14.6675   42.3691    7.2816 C.3     1  UNL1        0.1421
     24 O          13.4381   41.7224    7.0560 O.3     1  UNL1       -0.3542
@<TRIPOS>BOND
     1    11    12    1
     2    12    17   ar
     3    13    14   ar
     4    15    14    1
     5     2     4   ar
     6    18     4    1
     7    19    18    1
     8    19    20    1
     9    19    24    1
    10    20    21    1
    11    21    22    1
    12    22    23    1
    13    23    24    1
    14     3     1   ar
    15    16    17   ar
    16     6     1    1
    17     4     5   ar
    18    10    13    1
    19    10     6    1
    20    12    13   ar
    21    14    16   ar
    22     1     2   ar
    23     3     5   ar
    24    10     8    2
    25    10     9    2
    26     6     7    1
@<TRIPOS>MOLECULE
MolPort-039-210-473 CSSS03436999701 MCULE-9158305354 PubChem-121017026
 24 26 0 0 0
SMALL
GASTEIGER

@<TRIPOS>ATOM
      1 C           8.6400   42.8053   10.5143 C.ar    1  UNL1        0.1043
      2 C           9.4584   41.8788    9.9111 C.ar    1  UNL1        0.1125
      3 C           9.3255   44.0038   10.5791 C.ar    1  UNL1        0.1375
      4 N          10.5981   42.5334    9.6279 N.ar    1  UNL1       -0.2456
      5 N          10.5347   43.7959   10.0223 N.ar    1  UNL1       -0.1662
      6 N           7.3177   42.5507   10.9879 N.pl3   1  UNL1       -0.2118
      7 H           7.0633   42.8796   11.8803 H       1  UNL1        0.1738
      8 O           6.8189   40.9723    8.9170 O.2     1  UNL1       -0.1498
      9 O           5.4496   40.6909   10.9406 O.2     1  UNL1       -0.1498
     10 S           6.1439   41.6860   10.0540 S.O2    1  UNL1        0.0776
     11 C           2.7841   41.8402   10.3309 C.3     1  UNL1        0.0769
     12 C           3.5985   42.8159    9.5562 C.ar    1  UNL1        0.1732
     13 C           4.9687   42.8233    9.4049 C.ar    1  UNL1        0.1744
     14 C           5.2061   43.9113    8.5921 C.ar    1  UNL1        0.1195
     15 C           6.5278   44.3740    8.0874 C.3     1  UNL1        0.0571
     16 N           4.0375   44.5102    8.2920 N.ar    1  UNL1       -0.0803
     17 O           3.0988   43.8286    8.8859 O.2     1  UNL1       -0.3567
     18 C          11.7682   41.9403    9.0005 C.3     1  UNL1        0.1569
     19 C          11.5431   41.7704    7.5064 C.3     1  UNL1        0.1395
     20 C          12.2055   40.4741    7.0064 C.3     1  UNL1        0.0317
     21 C          11.2913   39.7049    6.0492 C.3     1  UNL1        0.0051
     22 C          10.5407   40.6484    5.1059 C.3     1  UNL1        0.0322
     23 C          10.0444   41.9070    5.8364 C.3     1  UNL1        0.1421
     24 O          10.1636   41.7750    7.2324 O.3     1  UNL1       -0.3542
@<TRIPOS>BOND
     1    11    12    1
     2    12    17   ar
     3    13    14   ar
     4    15    14    1
     5     2     4   ar
     6    18     4    1
     7    19    18    1
     8    19    20    1
     9    19    24    1
    10    20    21    1
    11    21    22    1
    12    22    23    1
    13    23    24    1
    14     3     1   ar
    15    16    17   ar
    16     6     1    1
    17     4     5   ar
    18    10    13    1
    19    10     6    1
    20    12    13   ar
    21    14    16   ar
    22     1     2   ar
    23     3     5   ar
    24    10     8    2
    25    10     9    2
    26     6     7    1
@<TRIPOS>MOLECULE
MolPort-039-210-473 CSSS03436999701 MCULE-9158305354 PubChem-121017026
 24 26 0 0 0
SMALL
GASTEIGER

@<TRIPOS>ATOM
      1 C           8.9826   42.4430   10.1011 C.ar    1  UNL1        0.1043
      2 C           9.4916   41.2809    9.5694 C.ar    1  UNL1        0.1125
      3 C           9.9899   43.3894   10.1036 C.ar    1  UNL1        0.1375
      4 N          10.7726   41.5533    9.2656 N.ar    1  UNL1       -0.2456
      5 N          11.0836   42.8013    9.5807 N.ar    1  UNL1       -0.1662
      6 N           7.6448   42.6179   10.5674 N.pl3   1  UNL1       -0.2118
      7 H           7.4815   43.2378   11.3146 H       1  UNL1        0.1738
      8 O           6.7646   40.9204    8.7309 O.2     1  UNL1       -0.1498
      9 O           5.6530   40.9280   10.9248 O.2     1  UNL1       -0.1498
     10 S           6.2983   41.7821    9.8702 S.O2    1  UNL1        0.0776
     11 C           2.9447   41.9861   10.1868 C.3     1  UNL1        0.0769
     12 C           3.7683   42.9697    9.4319 C.ar    1  UNL1        0.1732
     13 C           5.1368   42.9578    9.2664 C.ar    1  UNL1        0.1744
     14 C           5.3851   44.0646    8.4829 C.ar    1  UNL1        0.1195
     15 C           6.7096   44.5189    7.9777 C.3     1  UNL1        0.0571
     16 N           4.2243   44.6920    8.2124 N.ar    1  UNL1       -0.0803
     17 O           3.2798   44.0098    8.7963 O.2     1  UNL1       -0.3567
     18 C          11.7156   40.6046    8.6952 C.3     1  UNL1        0.1569
     19 C          12.9762   40.5316    9.5423 C.3     1  UNL1        0.1395
     20 C          12.6613   39.9341   10.9255 C.3     1  UNL1        0.0317
     21 C          13.7164   38.9105   11.3526 C.3     1  UNL1        0.0051
     22 C          15.1275   39.3599   10.9653 C.3     1  UNL1        0.0322
     23 C          15.1586   39.9930    9.5645 C.3     1  UNL1        0.1421
     24 O          13.9534   39.7743    8.8717 O.3     1  UNL1       -0.3542
@<TRIPOS>BOND
     1    11    12    1
     2    12    17   ar
     3    13    14   ar
     4    15    14    1
     5     2     4   ar
     6    18     4    1
     7    19    18    1
     8    19    20    1
     9    19    24    1
    10    20    21    1
    11    21    22    1
    12    22    23    1
    13    23    24    1
    14     3     1   ar
    15    16    17   ar
    16     6     1    1
    17     4     5   ar
    18    10    13    1
    19    10     6    1
    20    12    13   ar
    21    14    16   ar
    22     1     2   ar
    23     3     5   ar
    24    10     8    2
    25    10     9    2
    26     6     7    1
@<TRIPOS>MOLECULE
MolPort-039-210-473 CSSS03436999701 MCULE-9158305354 PubChem-121017026
 24 26 0 0 0
SMALL
GASTEIGER

@<TRIPOS>ATOM
      1 C          11.2576   40.7653    8.2109 C.ar    1  UNL1        0.1043
      2 C          11.4499   41.9261    7.4983 C.ar    1  UNL1        0.1125
      3 C          12.4853   40.1490    8.3641 C.ar    1  UNL1        0.1375
      4 N          12.7696   41.9815    7.2471 N.ar    1  UNL1       -0.2456
      5 N          13.3968   40.9305    7.7527 N.ar    1  UNL1       -0.1662
      6 N           9.9994   40.2954    8.6944 N.pl3   1  UNL1       -0.2118
      7 H           9.9447   39.3841    9.0629 H       1  UNL1        0.1738
      8 O           8.8805   42.6230    8.0952 O.2     1  UNL1       -0.1498
      9 O           7.5356   40.5848    7.8018 O.2     1  UNL1       -0.1498
     10 S           8.5660   41.2657    8.6580 S.O2    1  UNL1        0.0776
     11 C           5.4189   41.4869    9.8563 C.3     1  UNL1        0.0769
     12 C           6.6374   41.5408   10.7095 C.ar    1  UNL1        0.1732
     13 C           7.9492   41.4489   10.2956 C.ar    1  UNL1        0.1744
     14 C           8.6736   41.5719   11.4621 C.ar    1  UNL1        0.1195
     15 C          10.1564   41.5663   11.5941 C.3     1  UNL1        0.0571
     16 N           7.8291   41.7201   12.5009 N.ar    1  UNL1       -0.0803
     17 O           6.6207   41.6960   12.0133 O.2     1  UNL1       -0.3567
     18 C          13.4329   43.0334    6.4936 C.3     1  UNL1        0.1569
     19 C          14.9428   42.8684    6.5644 C.3     1  UNL1        0.1395
     20 C          15.6370   43.8495    5.6027 C.3     1  UNL1        0.0317
     21 C          16.8495   44.5184    6.2554 C.3     1  UNL1        0.0051
     22 C          17.6405   43.5326    7.1191 C.3     1  UNL1        0.0322
     23 C          16.7116   42.6125    7.9281 C.3     1  UNL1        0.1421
     24 O          15.3779   43.0602    7.8881 O.3     1  UNL1       -0.3542
@<TRIPOS>BOND
     1    11    12    1
     2    12    17   ar
     3    13    14   ar
     4    15    14    1
     5     2     4   ar
     6    18     4    1
     7    19    18    1
     8    19    20    1
     9    19    24    1
    10    20    21    1
    11    21    22    1
    12    22    23    1
    13    23    24    1
    14     3     1   ar
    15    16    17   ar
    16     6     1    1
    17     4     5   ar
    18    10    13    1
    19    10     6    1
    20    12    13   ar
    21    14    16   ar
    22     1     2   ar
    23     3     5   ar
    24    10     8    2
    25    10     9    2
    26     6     7    1
@<TRIPOS>MOLECULE
MolPort-039-210-473 CSSS03436999701 MCULE-9158305354 PubChem-121017026
 24 26 0 0 0
SMALL
GASTEIGER

@<TRIPOS>ATOM
      1 C          11.3082   41.9381    7.6519 C.ar    1  UNL1        0.1043
      2 C          12.3558   41.6179    8.4839 C.ar    1  UNL1        0.1125
      3 C          11.7944   42.0098    6.3600 C.ar    1  UNL1        0.1375
      4 N          13.4302   41.5023    7.6840 N.ar    1  UNL1       -0.2456
      5 N          13.1122   41.7358    6.4199 N.ar    1  UNL1       -0.1662
      6 N           9.9617   42.1585    8.0715 N.pl3   1  UNL1       -0.2118
      7 H           9.5862   43.0658    7.9996 H       1  UNL1        0.1738
      8 O           9.8216   39.7764    9.2269 O.2     1  UNL1       -0.1498
      9 O           8.1123   41.4459    9.8101 O.2     1  UNL1       -0.1498
     10 S           8.9631   40.8924    8.7019 S.O2    1  UNL1        0.0776
     11 C           9.6688   39.0927    5.9357 C.3     1  UNL1        0.0769
     12 C           8.2996   39.5455    6.3042 C.ar    1  UNL1        0.1732
     13 C           7.9336   40.2727    7.4167 C.ar    1  UNL1        0.1744
     14 C           6.5725   40.4368    7.2718 C.ar    1  UNL1        0.1195
     15 C           5.6622   41.1757    8.1890 C.3     1  UNL1        0.0571
     16 N           6.1659   39.8313    6.1394 N.ar    1  UNL1       -0.0803
     17 O           7.2248   39.3090    5.5877 O.2     1  UNL1       -0.3567
     18 C          14.7777   41.1936    8.1348 C.3     1  UNL1        0.1569
     19 C          15.6509   42.4378    8.0954 C.3     1  UNL1        0.1395
     20 C          17.0475   42.1334    8.6664 C.3     1  UNL1        0.0317
     21 C          18.1557   42.7484    7.8078 C.3     1  UNL1        0.0051
     22 C          17.7712   44.1419    7.3042 C.3     1  UNL1        0.0322
     23 C          16.3001   44.2010    6.8612 C.3     1  UNL1        0.1421
     24 O          15.7343   42.9153    6.7750 O.3     1  UNL1       -0.3542
@<TRIPOS>BOND
     1    11    12    1
     2    12    17   ar
     3    13    14   ar
     4    15    14    1
     5     2     4   ar
     6    18     4    1
     7    19    18    1
     8    19    20    1
     9    19    24    1
    10    20    21    1
    11    21    22    1
    12    22    23    1
    13    23    24    1
    14     3     1   ar
    15    16    17   ar
    16     6     1    1
    17     4     5   ar
    18    10    13    1
    19    10     6    1
    20    12    13   ar
    21    14    16   ar
    22     1     2   ar
    23     3     5   ar
    24    10     8    2
    25    10     9    2
    26     6     7    1
@<TRIPOS>MOLECULE
MolPort-039-210-473 CSSS03436999701 MCULE-9158305354 PubChem-121017026
 24 26 0 0 0
SMALL
GASTEIGER

@<TRIPOS>ATOM
      1 C           8.7177   42.5589   10.1583 C.ar    1  UNL1        0.1043
      2 C           9.2625   41.5966    9.3402 C.ar    1  UNL1        0.1125
      3 C           9.6632   43.5504   10.3411 C.ar    1  UNL1        0.1375
      4 N          10.5028   42.0278    9.0514 N.ar    1  UNL1       -0.2456
      5 N          10.7558   43.1857    9.6421 N.ar    1  UNL1       -0.1662
      6 N           7.4037   42.5183   10.7147 N.pl3   1  UNL1       -0.2118
      7 H           7.2334   42.9918   11.5609 H       1  UNL1        0.1738
      8 O           6.6159   40.8504    8.8103 O.2     1  UNL1       -0.1498
      9 O           5.4471   40.7702   10.9729 O.2     1  UNL1       -0.1498
     10 S           6.0979   41.6687    9.9592 S.O2    1  UNL1        0.0776
     11 C           2.7308   41.7648   10.1646 C.3     1  UNL1        0.0769
     12 C           3.5498   42.7979    9.4736 C.ar    1  UNL1        0.1732
     13 C           4.9229   42.8312    9.3560 C.ar    1  UNL1        0.1744
     14 C           5.1645   43.9718    8.6203 C.ar    1  UNL1        0.1195
     15 C           6.4913   44.4817    8.1781 C.3     1  UNL1        0.0571
     16 N           3.9953   44.5748    8.3311 N.ar    1  UNL1       -0.0803
     17 O           3.0523   43.8454    8.8575 O.2     1  UNL1       -0.3567
     18 C          11.4644   41.3139    8.2268 C.3     1  UNL1        0.1569
     19 C          12.7290   42.1389    8.0477 C.3     1  UNL1        0.1395
     20 C          13.9122   41.4750    8.7746 C.3     1  UNL1        0.0317
     21 C          15.1805   41.4861    7.9174 C.3     1  UNL1        0.0051
     22 C          15.3338   42.8041    7.1540 C.3     1  UNL1        0.0322
     23 C          13.9905   43.2936    6.5885 C.3     1  UNL1        0.1421
     24 O          12.9993   42.2984    6.6766 O.3     1  UNL1       -0.3542
@<TRIPOS>BOND
     1    11    12    1
     2    12    17   ar
     3    13    14   ar
     4    15    14    1
     5     2     4   ar
     6    18     4    1
     7    19    18    1
     8    19    20    1
     9    19    24    1
    10    20    21    1
    11    21    22    1
    12    22    23    1
    13    23    24    1
    14     3     1   ar
    15    16    17   ar
    16     6     1    1
    17     4     5   ar
    18    10    13    1
    19    10     6    1
    20    12    13   ar
    21    14    16   ar
    22     1     2   ar
    23     3     5   ar
    24    10     8    2
    25    10     9    2
    26     6     7    1
@<TRIPOS>MOLECULE
MolPort-039-210-473 CSSS03436999701 MCULE-9158305354 PubChem-121017026
 24 26 0 0 0
SMALL
GASTEIGER

@<TRIPOS>ATOM
      1 C           8.7331   43.3089    9.4150 C.ar    1  UNL1        0.1043
      2 C           9.0521   42.4145    8.4198 C.ar    1  UNL1        0.1125
      3 C           9.8950   43.6271   10.0927 C.ar    1  UNL1        0.1375
      4 N          10.3790   42.2222    8.5186 N.ar    1  UNL1       -0.2456
      5 N          10.8926   42.9336    9.5103 N.ar    1  UNL1       -0.1662
      6 N           7.4225   43.8052    9.6864 N.pl3   1  UNL1       -0.2118
      7 H           7.3271   44.6023   10.2563 H       1  UNL1        0.1738
      8 O           4.9416   44.1023    8.7998 O.2     1  UNL1       -0.1498
      9 O           6.3368   42.3597    7.7674 O.2     1  UNL1       -0.1498
     10 S           5.9942   43.0600    9.0521 S.O2    1  UNL1        0.0776
     11 C           7.4359   41.6077   11.7356 C.3     1  UNL1        0.0769
     12 C           6.0408   41.3352   11.2941 C.ar    1  UNL1        0.1732
     13 C           5.3830   41.8935   10.2188 C.ar    1  UNL1        0.1744
     14 C           4.1406   41.2965   10.2447 C.ar    1  UNL1        0.1195
     15 C           3.0257   41.5191    9.2837 C.3     1  UNL1        0.0571
     16 N           4.0753   40.4418   11.2836 N.ar    1  UNL1       -0.0803
     17 O           5.2286   40.4917   11.8885 O.2     1  UNL1       -0.3567
     18 C          11.1586   41.3295    7.6760 C.3     1  UNL1        0.1569
     19 C          10.2683   40.6624    6.6395 C.3     1  UNL1        0.1395
     20 C          10.7155   41.0479    5.2179 C.3     1  UNL1        0.0317
     21 C          10.7288   39.8368    4.2816 C.3     1  UNL1        0.0051
     22 C           9.5324   38.9157    4.5339 C.3     1  UNL1        0.0322
     23 C           9.2460   38.7535    6.0357 C.3     1  UNL1        0.1421
     24 O          10.2950   39.2678    6.8204 O.3     1  UNL1       -0.3542
@<TRIPOS>BOND
     1    11    12    1
     2    12    17   ar
     3    13    14   ar
     4    15    14    1
     5     2     4   ar
     6    18     4    1
     7    19    18    1
     8    19    20    1
     9    19    24    1
    10    20    21    1
    11    21    22    1
    12    22    23    1
    13    23    24    1
    14     3     1   ar
    15    16    17   ar
    16     6     1    1
    17     4     5   ar
    18    10    13    1
    19    10     6    1
    20    12    13   ar
    21    14    16   ar
    22     1     2   ar
    23     3     5   ar
    24    10     8    2
    25    10     9    2
    26     6     7    1
@<TRIPOS>MOLECULE
MolPort-039-210-473 CSSS03436999701 MCULE-9158305354 PubChem-121017026
 24 26 0 0 0
SMALL
GASTEIGER

@<TRIPOS>ATOM
      1 C          11.6217   40.3130    6.6503 C.ar    1  UNL1        0.1043
      2 C          12.6250   40.1231    7.5720 C.ar    1  UNL1        0.1125
      3 C          11.6889   41.6208    6.2081 C.ar    1  UNL1        0.1375
      4 N          13.2648   41.3025    7.6577 N.ar    1  UNL1       -0.2456
      5 N          12.7173   42.2026    6.8555 N.ar    1  UNL1       -0.1662
      6 N          10.6823   39.3195    6.2401 N.pl3   1  UNL1       -0.2118
      7 H          10.7533   38.9479    5.3312 H       1  UNL1        0.1738
      8 O           8.5564   37.7637    6.5382 O.2     1  UNL1       -0.1498
      9 O          10.0418   38.0741    8.4738 O.2     1  UNL1       -0.1498
     10 S           9.4228   38.7428    7.2788 S.O2    1  UNL1        0.0776
     11 C           9.8975   41.0553    9.6904 C.3     1  UNL1        0.0769
     12 C           8.6970   41.0071    8.8118 C.ar    1  UNL1        0.1732
     13 C           8.4376   40.1027    7.8042 C.ar    1  UNL1        0.1744
     14 C           7.2040   40.4872    7.3238 C.ar    1  UNL1        0.1195
     15 C           6.4296   39.8329    6.2337 C.3     1  UNL1        0.0571
     16 N           6.7709   41.5625    8.0097 N.ar    1  UNL1       -0.0803
     17 O           7.6892   41.8453    8.8902 O.2     1  UNL1       -0.3567
     18 C          14.3913   41.5798    8.5344 C.3     1  UNL1        0.1569
     19 C          15.5956   42.0365    7.7262 C.3     1  UNL1        0.1395
     20 C          15.2535   43.3016    6.9188 C.3     1  UNL1        0.0317
     21 C          16.3761   44.3398    6.9924 C.3     1  UNL1        0.0051
     22 C          17.7572   43.6830    6.9246 C.3     1  UNL1        0.0322
     23 C          17.8150   42.3926    7.7585 C.3     1  UNL1        0.1421
     24 O          16.6849   42.2616    8.5870 O.3     1  UNL1       -0.3542
@<TRIPOS>BOND
     1    11    12    1
     2    12    17   ar
     3    13    14   ar
     4    15    14    1
     5     2     4   ar
     6    18     4    1
     7    19    18    1
     8    19    20    1
     9    19    24    1
    10    20    21    1
    11    21    22    1
    12    22    23    1
    13    23    24    1
    14     3     1   ar
    15    16    17   ar
    16     6     1    1
    17     4     5   ar
    18    10    13    1
    19    10     6    1
    20    12    13   ar
    21    14    16   ar
    22     1     2   ar
    23     3     5   ar
    24    10     8    2
    25    10     9    2
    26     6     7    1
@<TRIPOS>MOLECULE
MolPort-039-210-473 CSSS03436999701 MCULE-9158305354 PubChem-121017026
 24 26 0 0 0
SMALL
GASTEIGER

@<TRIPOS>ATOM
      1 C           9.3313   41.1412    7.6913 C.ar    1  UNL1        0.1043
      2 C           8.7003   41.3147    8.9013 C.ar    1  UNL1        0.1125
      3 C           8.3598   40.9737    6.7224 C.ar    1  UNL1        0.1375
      4 N           7.3841   41.2524    8.6346 N.ar    1  UNL1       -0.2456
      5 N           7.1670   41.0467    7.3446 N.ar    1  UNL1       -0.1662
      6 N          10.7450   41.1341    7.4939 N.pl3   1  UNL1       -0.2118
      7 H          11.1187   40.5827    6.7690 H       1  UNL1        0.1738
      8 O          12.8730   42.7104    7.6197 O.2     1  UNL1       -0.1498
      9 O          11.0448   43.1075    9.2163 O.2     1  UNL1       -0.1498
     10 S          11.8281   42.0576    8.4798 S.O2    1  UNL1        0.0776
     11 C          10.7239   40.6336   11.3332 C.3     1  UNL1        0.0769
     12 C          12.0976   40.4482   10.7909 C.ar    1  UNL1        0.1732
     13 C          12.6161   40.9876    9.6330 C.ar    1  UNL1        0.1744
     14 C          13.9141   40.5240    9.6043 C.ar    1  UNL1        0.1195
     15 C          14.9439   40.8234    8.5718 C.3     1  UNL1        0.0571
     16 N          14.1378   39.7500   10.6838 N.ar    1  UNL1       -0.0803
     17 O          13.0299   39.7271   11.3697 O.2     1  UNL1       -0.3567
     18 C           6.3251   41.3624    9.6251 C.3     1  UNL1        0.1569
     19 C           5.5455   42.6532    9.4305 C.3     1  UNL1        0.1395
     20 C           6.3796   43.6705    8.6312 C.3     1  UNL1        0.0317
     21 C           5.5411   44.3709    7.5590 C.3     1  UNL1        0.0051
     22 C           4.1340   44.6961    8.0665 C.3     1  UNL1        0.0322
     23 C           3.5506   43.5451    8.9025 C.3     1  UNL1        0.1421
     24 O           4.3264   42.3768    8.7857 O.3     1  UNL1       -0.3542
@<TRIPOS>BOND
     1    11    12    1
     2    12    17   ar
     3    13    14   ar
     4    15    14    1
     5     2     4   ar
     6    18     4    1
     7    19    18    1
     8    19    20    1
     9    19    24    1
    10    20    21    1
    11    21    22    1
    12    22    23    1
    13    23    24    1
    14     3     1   ar
    15    16    17   ar
    16     6     1    1
    17     4     5   ar
    18    10    13    1
    19    10     6    1
    20    12    13   ar
    21    14    16   ar
    22     1     2   ar
    23     3     5   ar
    24    10     8    2
    25    10     9    2
    26     6     7    1
