@<TRIPOS>MOLECULE
MolPort-020-293-032 MCULE-5785464282 PubChem-110265499
 28 30 0 0 0
SMALL
GASTEIGER

@<TRIPOS>ATOM
      1 C           8.9245   41.7115    7.7372 C.ar    1  UNL1        0.1339
      2 C           8.2627   41.0425    6.6985 C.ar    1  UNL1        0.0345
      3 C           9.0051   40.4248    5.6922 C.ar    1  UNL1        0.0041
      4 C          10.3980   40.4772    5.7267 C.ar    1  UNL1        0.0149
      5 C          11.0333   41.1534    6.7772 C.ar    1  UNL1        0.0614
      6 N          10.2851   41.7473    7.7462 N.ar    1  UNL1       -0.2348
      7 C          12.5246   41.2337    6.8548 C.3     1  UNL1        0.0581
      8 C          13.0106   41.0457    8.2921 C.3     1  UNL1        0.0089
      9 C          14.5239   41.2209    8.3656 C.3     1  UNL1        0.0196
     10 C          14.9132   42.5601    7.7451 C.3     1  UNL1        0.0969
     11 C          13.0329   42.5644    6.2971 C.3     1  UNL1        0.1027
     12 N          14.4954   42.6015    6.3428 N.3     1  UNL1       -0.1450
     13 S          15.0038   44.1202    5.6667 S.O2    1  UNL1        0.1021
     14 O          14.0568   45.2150    6.0817 O.2     1  UNL1       -0.1408
     15 O          14.9936   44.0120    4.1658 O.2     1  UNL1       -0.1408
     16 C          17.5403   43.5992    5.5086 C.3     1  UNL1        0.1161
     17 C          16.7090   44.1678    7.6065 C.3     1  UNL1        0.1161
     18 N          16.6195   44.4910    6.1927 N.3     1  UNL1       -0.1424
     19 N           8.2087   42.3630    8.7965 N.pl3   1  UNL1       -0.2680
     20 H           8.7568   42.7834    9.4979 H       1  UNL1        0.1565
     21 C           4.0683   40.4977   10.5567 C.3     1  UNL1        0.0522
     22 C           4.7735   41.5686    9.8055 C.ar    1  UNL1        0.0634
     23 C           4.0537   42.6382    9.2763 C.ar    1  UNL1        0.0296
     24 C           4.7509   43.6222    8.5784 C.ar    1  UNL1        0.0634
     25 C           6.7873   42.4724    8.9516 C.ar    1  UNL1        0.2211
     26 C           4.0222   44.7796    7.9978 C.3     1  UNL1        0.0522
     27 N           6.0974   43.5231    8.4288 N.ar    1  UNL1       -0.2179
     28 N           6.1199   41.5050    9.6348 N.ar    1  UNL1       -0.2179
@<TRIPOS>BOND
     1    21    22    1
     2    22    28   ar
     3    23    24   ar
     4    25    27   ar
     5    25    19    1
     6     1     6   ar
     7     2     3   ar
     8     4     5   ar
     9     7     5    1
    10     7     8    1
    11     8     9    1
    12     9    10    1
    13    10    12    1
    14    11    12    1
    15    11     7    1
    16    16    18    1
    17    17    18    1
    18    26    24    1
    19    19     1    1
    20    13    12    1
    21    13    18    1
    22    22    23   ar
    23    24    27   ar
    24    25    28   ar
    25     1     2   ar
    26     3     4   ar
    27     5     6   ar
    28    13    14    2
    29    13    15    2
    30    19    20    1
@<TRIPOS>MOLECULE
MolPort-020-293-032 MCULE-5785464282 PubChem-110265499
 28 30 0 0 0
SMALL
GASTEIGER

@<TRIPOS>ATOM
      1 C          14.1753   39.9959    9.4185 C.ar    1  UNL1        0.1339
      2 C          14.3942   39.8368   10.7937 C.ar    1  UNL1        0.0345
      3 C          13.3299   39.4920   11.6266 C.ar    1  UNL1        0.0041
      4 C          12.0579   39.3083   11.0860 C.ar    1  UNL1        0.0149
      5 C          11.8678   39.4741    9.7074 C.ar    1  UNL1        0.0614
      6 N          12.9234   39.8107    8.9175 N.ar    1  UNL1       -0.2348
      7 C          10.5212   39.2859    9.0847 C.3     1  UNL1        0.0581
      8 C          10.4094   37.9122    8.4230 C.3     1  UNL1        0.0089
      9 C           9.0648   37.7737    7.7165 C.3     1  UNL1        0.0196
     10 C           8.8686   38.9459    6.7586 C.3     1  UNL1        0.0969
     11 C          10.2291   40.3872    8.0639 C.3     1  UNL1        0.1027
     12 N           8.8900   40.2071    7.5012 N.3     1  UNL1       -0.1450
     13 S           8.6128   41.5056    6.3790 S.O2    1  UNL1        0.1021
     14 O           8.3344   42.7840    7.1246 O.2     1  UNL1       -0.1408
     15 O           7.4169   41.1677    5.5304 O.2     1  UNL1       -0.1408
     16 C          10.1875   40.4714    4.5956 C.3     1  UNL1        0.1161
     17 C          11.1668   41.8468    6.1971 C.3     1  UNL1        0.1161
     18 N           9.9982   41.7011    5.3460 N.3     1  UNL1       -0.1424
     19 N          15.2350   40.3497    8.5181 N.pl3   1  UNL1       -0.2680
     20 H          15.8291   39.6172    8.2360 H       1  UNL1        0.1565
     21 C          18.2906   44.1318    8.2373 C.3     1  UNL1        0.0522
     22 C          17.0114   43.4864    7.8432 C.ar    1  UNL1        0.0634
     23 C          16.1383   44.1416    6.9768 C.ar    1  UNL1        0.0296
     24 C          14.9488   43.5035    6.6311 C.ar    1  UNL1        0.0634
     25 C          15.5287   41.6468    7.9818 C.ar    1  UNL1        0.2211
     26 C          13.9898   44.1667    5.7101 C.3     1  UNL1        0.0522
     27 N          14.6661   42.2748    7.1364 N.ar    1  UNL1       -0.2179
     28 N          16.6929   42.2577    8.3277 N.ar    1  UNL1       -0.2179
@<TRIPOS>BOND
     1    21    22    1
     2    22    28   ar
     3    23    24   ar
     4    25    27   ar
     5    25    19    1
     6     1     6   ar
     7     2     3   ar
     8     4     5   ar
     9     7     5    1
    10     7     8    1
    11     8     9    1
    12     9    10    1
    13    10    12    1
    14    11    12    1
    15    11     7    1
    16    16    18    1
    17    17    18    1
    18    26    24    1
    19    19     1    1
    20    13    12    1
    21    13    18    1
    22    22    23   ar
    23    24    27   ar
    24    25    28   ar
    25     1     2   ar
    26     3     4   ar
    27     5     6   ar
    28    13    14    2
    29    13    15    2
    30    19    20    1
@<TRIPOS>MOLECULE
MolPort-020-293-032 MCULE-5785464282 PubChem-110265499
 28 30 0 0 0
SMALL
GASTEIGER

@<TRIPOS>ATOM
      1 C          15.8032   39.7999   10.1736 C.ar    1  UNL1        0.1339
      2 C          16.3027   39.0320   11.2344 C.ar    1  UNL1        0.0345
      3 C          15.4315   38.2432   11.9855 C.ar    1  UNL1        0.0041
      4 C          14.0721   38.2242   11.6761 C.ar    1  UNL1        0.0149
      5 C          13.6002   39.0021   10.6101 C.ar    1  UNL1        0.0614
      6 N          14.4717   39.7627    9.8935 N.ar    1  UNL1       -0.2348
      7 C          12.1506   39.0113   10.2423 C.3     1  UNL1        0.0581
      8 C          11.8451   37.9479    9.1872 C.3     1  UNL1        0.0089
      9 C          10.3837   38.0326    8.7591 C.3     1  UNL1        0.0196
     10 C          10.0627   39.4587    8.3194 C.3     1  UNL1        0.0969
     11 C          11.7200   40.3904    9.7398 C.3     1  UNL1        0.1027
     12 N          10.2898   40.3867    9.4283 N.3     1  UNL1       -0.1450
     13 S           9.8636   41.9861    8.8972 S.O2    1  UNL1        0.1021
     14 O           9.7089   42.0106    7.3995 O.2     1  UNL1       -0.1408
     15 O          10.9626   42.9371    9.2878 O.2     1  UNL1       -0.1408
     16 C           7.3284   41.5764    9.2642 C.3     1  UNL1        0.1161
     17 C           8.0295   43.7909    9.1230 C.3     1  UNL1        0.1161
     18 N           8.3856   42.4899    9.6630 N.3     1  UNL1       -0.1424
     19 N          16.6559   40.6278    9.3698 N.pl3   1  UNL1       -0.2680
     20 H          17.6246   40.5169    9.5061 H       1  UNL1        0.1565
     21 C          13.1440   42.4997    6.5622 C.3     1  UNL1        0.0522
     22 C          14.5560   42.5101    7.0251 C.ar    1  UNL1        0.0634
     23 C          15.4517   43.4447    6.5087 C.ar    1  UNL1        0.0296
     24 C          16.7670   43.4222    6.9679 C.ar    1  UNL1        0.0634
     25 C          16.2604   41.5982    8.3908 C.ar    1  UNL1        0.2211
     26 C          17.7544   44.4010    6.4437 C.3     1  UNL1        0.0522
     27 N          17.1465   42.5051    7.8953 N.ar    1  UNL1       -0.2179
     28 N          14.9738   41.6085    7.9516 N.ar    1  UNL1       -0.2179
@<TRIPOS>BOND
     1    21    22    1
     2    22    28   ar
     3    23    24   ar
     4    25    27   ar
     5    25    19    1
     6     1     6   ar
     7     2     3   ar
     8     4     5   ar
     9     7     5    1
    10     7     8    1
    11     8     9    1
    12     9    10    1
    13    10    12    1
    14    11    12    1
    15    11     7    1
    16    16    18    1
    17    17    18    1
    18    26    24    1
    19    19     1    1
    20    13    12    1
    21    13    18    1
    22    22    23   ar
    23    24    27   ar
    24    25    28   ar
    25     1     2   ar
    26     3     4   ar
    27     5     6   ar
    28    13    14    2
    29    13    15    2
    30    19    20    1
@<TRIPOS>MOLECULE
MolPort-020-293-032 MCULE-5785464282 PubChem-110265499
 28 30 0 0 0
SMALL
GASTEIGER

@<TRIPOS>ATOM
      1 C           8.8919   42.2294    8.6659 C.ar    1  UNL1        0.1339
      2 C           8.8889   43.0144    9.8271 C.ar    1  UNL1        0.0345
      3 C          10.0975   43.4611   10.3612 C.ar    1  UNL1        0.0041
      4 C          11.2979   43.1241    9.7371 C.ar    1  UNL1        0.0149
      5 C          11.2711   42.3377    8.5774 C.ar    1  UNL1        0.0614
      6 N          10.0782   41.9152    8.0773 N.ar    1  UNL1       -0.2348
      7 C          12.5341   41.9535    7.8747 C.3     1  UNL1        0.0581
      8 C          13.5469   41.3573    8.8525 C.3     1  UNL1        0.0089
      9 C          14.8591   41.0560    8.1360 C.3     1  UNL1        0.0196
     10 C          15.3485   42.3111    7.4184 C.3     1  UNL1        0.0969
     11 C          13.1461   43.1532    7.1493 C.3     1  UNL1        0.1027
     12 N          14.3553   42.7432    6.4338 N.3     1  UNL1       -0.1450
     13 S          14.9772   44.1415    5.6091 S.O2    1  UNL1        0.1021
     14 O          14.0531   45.3137    5.8076 O.2     1  UNL1       -0.1408
     15 O          15.0680   43.8379    4.1380 O.2     1  UNL1       -0.1408
     16 C          17.5230   43.6462    5.5472 C.3     1  UNL1        0.1161
     17 C          16.6026   44.1822    7.6163 C.3     1  UNL1        0.1161
     18 N          16.5668   44.5212    6.2039 N.3     1  UNL1       -0.1424
     19 N           7.6773   41.7445    8.0757 N.pl3   1  UNL1       -0.2680
     20 H           7.7789   41.1112    7.3288 H       1  UNL1        0.1565
     21 C           3.5748   40.4801   10.3759 C.3     1  UNL1        0.0522
     22 C           4.3374   41.4642    9.5645 C.ar    1  UNL1        0.0634
     23 C           3.7425   42.6668    9.1879 C.ar    1  UNL1        0.0296
     24 C           4.4902   43.5634    8.4273 C.ar    1  UNL1        0.0634
     25 C           6.3326   42.0757    8.4478 C.ar    1  UNL1        0.2211
     26 C           3.8942   44.8572    8.0044 C.3     1  UNL1        0.0522
     27 N           5.7645   43.2545    8.0724 N.ar    1  UNL1       -0.2179
     28 N           5.6146   41.1914    9.1899 N.ar    1  UNL1       -0.2179
@<TRIPOS>BOND
     1    21    22    1
     2    22    28   ar
     3    23    24   ar
     4    25    27   ar
     5    25    19    1
     6     1     6   ar
     7     2     3   ar
     8     4     5   ar
     9     7     5    1
    10     7     8    1
    11     8     9    1
    12     9    10    1
    13    10    12    1
    14    11    12    1
    15    11     7    1
    16    16    18    1
    17    17    18    1
    18    26    24    1
    19    19     1    1
    20    13    12    1
    21    13    18    1
    22    22    23   ar
    23    24    27   ar
    24    25    28   ar
    25     1     2   ar
    26     3     4   ar
    27     5     6   ar
    28    13    14    2
    29    13    15    2
    30    19    20    1
@<TRIPOS>MOLECULE
MolPort-020-293-032 MCULE-5785464282 PubChem-110265499
 28 30 0 0 0
SMALL
GASTEIGER

@<TRIPOS>ATOM
      1 C          12.5634   42.1501    6.3871 C.ar    1  UNL1        0.1339
      2 C          13.6725   42.9714    6.1424 C.ar    1  UNL1        0.0345
      3 C          14.8411   42.7916    6.8825 C.ar    1  UNL1        0.0041
      4 C          14.8973   41.7978    7.8588 C.ar    1  UNL1        0.0149
      5 C          13.7731   40.9913    8.0824 C.ar    1  UNL1        0.0614
      6 N          12.6457   41.1878    7.3462 N.ar    1  UNL1       -0.2348
      7 C          13.7893   39.9128    9.1183 C.3     1  UNL1        0.0581
      8 C          13.1410   40.3900   10.4180 C.3     1  UNL1        0.0089
      9 C          13.2478   39.3100   11.4896 C.3     1  UNL1        0.0196
     10 C          14.7054   38.8823   11.6394 C.3     1  UNL1        0.0969
     11 C          15.2160   39.4310    9.3877 C.3     1  UNL1        0.1027
     12 N          15.2020   38.3469   10.3709 N.3     1  UNL1       -0.1450
     13 S          16.8447   37.8276   10.6037 S.O2    1  UNL1        0.1021
     14 O          17.3082   37.0270    9.4154 O.2     1  UNL1       -0.1408
     15 O          16.9107   36.9588   11.8306 O.2     1  UNL1       -0.1408
     16 C          17.5141   40.2204    9.8579 C.3     1  UNL1        0.1161
     17 C          19.2350   38.8037   10.5265 C.3     1  UNL1        0.1161
     18 N          17.8748   39.2093   10.8370 N.3     1  UNL1       -0.1424
     19 N          11.3381   42.2930    5.6544 N.pl3   1  UNL1       -0.2680
     20 H          11.1785   43.1717    5.2402 H       1  UNL1        0.1565
     21 C           9.7329   38.4280    3.1633 C.3     1  UNL1        0.0522
     22 C           9.5360   39.4256    4.2470 C.ar    1  UNL1        0.0634
     23 C           8.3868   39.3817    5.0340 C.ar    1  UNL1        0.0296
     24 C           8.2389   40.3345    6.0399 C.ar    1  UNL1        0.0634
     25 C          10.3190   41.3038    5.4556 C.ar    1  UNL1        0.2211
     26 C           7.0287   40.3237    6.9021 C.3     1  UNL1        0.0522
     27 N           9.2014   41.2734    6.2323 N.ar    1  UNL1       -0.2179
     28 N          10.4764   40.3804    4.4703 N.ar    1  UNL1       -0.2179
@<TRIPOS>BOND
     1    21    22    1
     2    22    28   ar
     3    23    24   ar
     4    25    27   ar
     5    25    19    1
     6     1     6   ar
     7     2     3   ar
     8     4     5   ar
     9     7     5    1
    10     7     8    1
    11     8     9    1
    12     9    10    1
    13    10    12    1
    14    11    12    1
    15    11     7    1
    16    16    18    1
    17    17    18    1
    18    26    24    1
    19    19     1    1
    20    13    12    1
    21    13    18    1
    22    22    23   ar
    23    24    27   ar
    24    25    28   ar
    25     1     2   ar
    26     3     4   ar
    27     5     6   ar
    28    13    14    2
    29    13    15    2
    30    19    20    1
@<TRIPOS>MOLECULE
MolPort-020-293-032 MCULE-5785464282 PubChem-110265499
 28 30 0 0 0
SMALL
GASTEIGER

@<TRIPOS>ATOM
      1 C          12.3456   40.7633    7.5914 C.ar    1  UNL1        0.1339
      2 C          12.6283   39.5604    8.2529 C.ar    1  UNL1        0.0345
      3 C          11.5827   38.7170    8.6283 C.ar    1  UNL1        0.0041
      4 C          10.2660   39.0761    8.3432 C.ar    1  UNL1        0.0149
      5 C          10.0125   40.2849    7.6809 C.ar    1  UNL1        0.0614
      6 N          11.0510   41.0891    7.3257 N.ar    1  UNL1       -0.2348
      7 C           8.6161   40.7091    7.3540 C.3     1  UNL1        0.0581
      8 C           8.6144   41.9083    6.4057 C.3     1  UNL1        0.0089
      9 C           7.1865   42.3827    6.1561 C.3     1  UNL1        0.0196
     10 C           6.4942   42.6419    7.4916 C.3     1  UNL1        0.0969
     11 C           7.8313   41.0414    8.6243 C.3     1  UNL1        0.1027
     12 N           6.4569   41.4108    8.2824 N.3     1  UNL1       -0.1450
     13 S           5.6169   41.7419    9.7680 S.O2    1  UNL1        0.1021
     14 O           5.1355   43.1687    9.7840 O.2     1  UNL1       -0.1408
     15 O           6.5646   41.5359   10.9187 O.2     1  UNL1       -0.1408
     16 C           3.0629   41.3473    9.5417 C.3     1  UNL1        0.1161
     17 C           4.1264   40.3565   11.3591 C.3     1  UNL1        0.1161
     18 N           4.2734   40.6516    9.9440 N.3     1  UNL1       -0.1424
     19 N          13.3834   41.6662    7.1835 N.pl3   1  UNL1       -0.2680
     20 H          13.1566   42.2904    6.4568 H       1  UNL1        0.1565
     21 C          17.6556   44.0032    7.2679 C.3     1  UNL1        0.0522
     22 C          16.7903   42.8978    7.7552 C.ar    1  UNL1        0.0634
     23 C          17.2780   41.9951    8.6983 C.ar    1  UNL1        0.0296
     24 C          16.4360   40.9724    9.1303 C.ar    1  UNL1        0.0634
     25 C          14.7129   41.7645    7.7120 C.ar    1  UNL1        0.2211
     26 C          16.9162   39.9883   10.1348 C.3     1  UNL1        0.0522
     27 N          15.1758   40.8751    8.6329 N.ar    1  UNL1       -0.2179
     28 N          15.5236   42.7672    7.2814 N.ar    1  UNL1       -0.2179
@<TRIPOS>BOND
     1    21    22    1
     2    22    28   ar
     3    23    24   ar
     4    25    27   ar
     5    25    19    1
     6     1     6   ar
     7     2     3   ar
     8     4     5   ar
     9     7     5    1
    10     7     8    1
    11     8     9    1
    12     9    10    1
    13    10    12    1
    14    11    12    1
    15    11     7    1
    16    16    18    1
    17    17    18    1
    18    26    24    1
    19    19     1    1
    20    13    12    1
    21    13    18    1
    22    22    23   ar
    23    24    27   ar
    24    25    28   ar
    25     1     2   ar
    26     3     4   ar
    27     5     6   ar
    28    13    14    2
    29    13    15    2
    30    19    20    1
@<TRIPOS>MOLECULE
MolPort-020-293-032 MCULE-5785464282 PubChem-110265499
 28 30 0 0 0
SMALL
GASTEIGER

@<TRIPOS>ATOM
      1 C          14.0992   40.4267    9.4723 C.ar    1  UNL1        0.1339
      2 C          14.0587   39.8099   10.7303 C.ar    1  UNL1        0.0345
      3 C          12.8310   39.6098   11.3615 C.ar    1  UNL1        0.0041
      4 C          11.6550   40.0240   10.7374 C.ar    1  UNL1        0.0149
      5 C          11.7253   40.6382    9.4797 C.ar    1  UNL1        0.0614
      6 N          12.9360   40.8213    8.8860 N.ar    1  UNL1       -0.2348
      7 C          10.4895   41.0970    8.7734 C.3     1  UNL1        0.0581
      8 C           9.3552   41.3576    9.7648 C.3     1  UNL1        0.0089
      9 C           8.0791   41.7363    9.0202 C.3     1  UNL1        0.0196
     10 C           7.7623   40.6696    7.9754 C.3     1  UNL1        0.0969
     11 C          10.0465   40.0772    7.7228 C.3     1  UNL1        0.1027
     12 N           8.8626   40.5678    7.0155 N.3     1  UNL1       -0.1450
     13 S           8.4354   39.3805    5.8197 S.O2    1  UNL1        0.1021
     14 O           6.9379   39.2460    5.7352 O.2     1  UNL1       -0.1408
     15 O           9.0206   38.0536    6.2214 O.2     1  UNL1       -0.1408
     16 C           9.3735   38.6274    3.5213 C.3     1  UNL1        0.1161
     17 C          10.3645   40.4882    4.5066 C.3     1  UNL1        0.1161
     18 N           9.0867   39.8372    4.2731 N.3     1  UNL1       -0.1424
     19 N          15.3349   40.6561    8.7801 N.pl3   1  UNL1       -0.2680
     20 H          15.9863   39.9181    8.7961 H       1  UNL1        0.1565
     21 C          14.2534   44.0752    5.4846 C.3     1  UNL1        0.0522
     22 C          15.2083   43.4988    6.4665 C.ar    1  UNL1        0.0634
     23 C          16.4467   44.1043    6.6719 C.ar    1  UNL1        0.0296
     24 C          17.3143   43.5338    7.6010 C.ar    1  UNL1        0.0634
     25 C          15.7308   41.8359    8.0675 C.ar    1  UNL1        0.2211
     26 C          18.6444   44.1473    7.8507 C.3     1  UNL1        0.0522
     27 N          16.9439   42.4163    8.2786 N.ar    1  UNL1       -0.2179
     28 N          14.8742   42.3817    7.1638 N.ar    1  UNL1       -0.2179
@<TRIPOS>BOND
     1    21    22    1
     2    22    28   ar
     3    23    24   ar
     4    25    27   ar
     5    25    19    1
     6     1     6   ar
     7     2     3   ar
     8     4     5   ar
     9     7     5    1
    10     7     8    1
    11     8     9    1
    12     9    10    1
    13    10    12    1
    14    11    12    1
    15    11     7    1
    16    16    18    1
    17    17    18    1
    18    26    24    1
    19    19     1    1
    20    13    12    1
    21    13    18    1
    22    22    23   ar
    23    24    27   ar
    24    25    28   ar
    25     1     2   ar
    26     3     4   ar
    27     5     6   ar
    28    13    14    2
    29    13    15    2
    30    19    20    1
@<TRIPOS>MOLECULE
MolPort-020-293-032 MCULE-5785464282 PubChem-110265499
 28 30 0 0 0
SMALL
GASTEIGER

@<TRIPOS>ATOM
      1 C          14.1290   40.4295    9.5329 C.ar    1  UNL1        0.1339
      2 C          14.2271   39.6132   10.6680 C.ar    1  UNL1        0.0345
      3 C          13.1181   39.4489   11.4979 C.ar    1  UNL1        0.0041
      4 C          11.9219   40.0969   11.1927 C.ar    1  UNL1        0.0149
      5 C          11.8524   40.9073   10.0514 C.ar    1  UNL1        0.0614
      6 N          12.9491   41.0503    9.2588 N.ar    1  UNL1       -0.2348
      7 C          10.5896   41.6200    9.6853 C.3     1  UNL1        0.0581
      8 C           9.4611   41.2715   10.6562 C.3     1  UNL1        0.0089
      9 C           8.1606   41.9349   10.2150 C.3     1  UNL1        0.0196
     10 C           7.8689   41.5698    8.7619 C.3     1  UNL1        0.0969
     11 C          10.1699   41.2926    8.2512 C.3     1  UNL1        0.1027
     12 N           8.9579   42.0350    7.9014 N.3     1  UNL1       -0.1450
     13 S           8.5583   41.6429    6.2556 S.O2    1  UNL1        0.1021
     14 O           9.7607   41.8371    5.3702 O.2     1  UNL1       -0.1408
     15 O           7.4592   42.5595    5.7906 O.2     1  UNL1       -0.1408
     16 C           6.5866   39.9747    6.4999 C.3     1  UNL1        0.1161
     17 C           8.6837   39.2372    7.1880 C.3     1  UNL1        0.1161
     18 N           7.9985   39.9991    6.1580 N.3     1  UNL1       -0.1424
     19 N          15.2390   40.6320    8.6467 N.pl3   1  UNL1       -0.2680
     20 H          15.8021   39.8446    8.4672 H       1  UNL1        0.1565
     21 C          14.1067   44.2178    5.5514 C.3     1  UNL1        0.0522
     22 C          15.0761   43.5926    6.4883 C.ar    1  UNL1        0.0634
     23 C          16.3162   44.1891    6.7083 C.ar    1  UNL1        0.0296
     24 C          17.1975   43.5724    7.5939 C.ar    1  UNL1        0.0634
     25 C          15.6232   41.8487    7.9920 C.ar    1  UNL1        0.2211
     26 C          18.5300   44.1749    7.8573 C.3     1  UNL1        0.0522
     27 N          16.8382   42.4199    8.2167 N.ar    1  UNL1       -0.2179
     28 N          14.7533   42.4395    7.1302 N.ar    1  UNL1       -0.2179
@<TRIPOS>BOND
     1    21    22    1
     2    22    28   ar
     3    23    24   ar
     4    25    27   ar
     5    25    19    1
     6     1     6   ar
     7     2     3   ar
     8     4     5   ar
     9     7     5    1
    10     7     8    1
    11     8     9    1
    12     9    10    1
    13    10    12    1
    14    11    12    1
    15    11     7    1
    16    16    18    1
    17    17    18    1
    18    26    24    1
    19    19     1    1
    20    13    12    1
    21    13    18    1
    22    22    23   ar
    23    24    27   ar
    24    25    28   ar
    25     1     2   ar
    26     3     4   ar
    27     5     6   ar
    28    13    14    2
    29    13    15    2
    30    19    20    1
@<TRIPOS>MOLECULE
MolPort-020-293-032 MCULE-5785464282 PubChem-110265499
 28 30 0 0 0
SMALL
GASTEIGER

@<TRIPOS>ATOM
      1 C          14.2161   40.4141    9.5507 C.ar    1  UNL1        0.1339
      2 C          14.3117   39.5777   10.6713 C.ar    1  UNL1        0.0345
      3 C          13.1956   39.3841   11.4851 C.ar    1  UNL1        0.0041
      4 C          11.9948   40.0230   11.1784 C.ar    1  UNL1        0.0149
      5 C          11.9280   40.8539   10.0518 C.ar    1  UNL1        0.0614
      6 N          13.0318   41.0253    9.2747 N.ar    1  UNL1       -0.2348
      7 C          10.6606   41.5578    9.6846 C.3     1  UNL1        0.0581
      8 C           9.5343   41.2030   10.6557 C.3     1  UNL1        0.0089
      9 C           8.2295   41.8573   10.2134 C.3     1  UNL1        0.0196
     10 C           7.9405   41.4885    8.7607 C.3     1  UNL1        0.0969
     11 C          10.2434   41.2260    8.2508 C.3     1  UNL1        0.1027
     12 N           9.0266   41.9598    7.8999 N.3     1  UNL1       -0.1450
     13 S           8.6298   41.5632    6.2545 S.O2    1  UNL1        0.1021
     14 O           9.8154   41.8147    5.3607 O.2     1  UNL1       -0.1408
     15 O           7.4890   42.4357    5.8056 O.2     1  UNL1       -0.1408
     16 C           6.7117   39.8233    6.4083 C.3     1  UNL1        0.1161
     17 C           8.7912   39.1761    7.2284 C.3     1  UNL1        0.1161
     18 N           8.1394   39.8979    6.1489 N.3     1  UNL1       -0.1424
     19 N          15.3335   40.6469    8.6812 N.pl3   1  UNL1       -0.2680
     20 H          15.9487   39.8895    8.5506 H       1  UNL1        0.1565
     21 C          18.5634   44.1743    7.7617 C.3     1  UNL1        0.0522
     22 C          17.2250   43.5710    7.5314 C.ar    1  UNL1        0.0634
     23 C          16.3277   44.1796    6.6558 C.ar    1  UNL1        0.0296
     24 C          15.0827   43.5833    6.4666 C.ar    1  UNL1        0.0634
     25 C          15.6577   41.8553    7.9803 C.ar    1  UNL1        0.2211
     26 C          14.0962   44.1991    5.5417 C.3     1  UNL1        0.0522
     27 N          14.7709   42.4386    7.1280 N.ar    1  UNL1       -0.2179
     28 N          16.8761   42.4262    8.1746 N.ar    1  UNL1       -0.2179
@<TRIPOS>BOND
     1    21    22    1
     2    22    28   ar
     3    23    24   ar
     4    25    27   ar
     5    25    19    1
     6     1     6   ar
     7     2     3   ar
     8     4     5   ar
     9     7     5    1
    10     7     8    1
    11     8     9    1
    12     9    10    1
    13    10    12    1
    14    11    12    1
    15    11     7    1
    16    16    18    1
    17    17    18    1
    18    26    24    1
    19    19     1    1
    20    13    12    1
    21    13    18    1
    22    22    23   ar
    23    24    27   ar
    24    25    28   ar
    25     1     2   ar
    26     3     4   ar
    27     5     6   ar
    28    13    14    2
    29    13    15    2
    30    19    20    1
@<TRIPOS>MOLECULE
MolPort-020-293-032 MCULE-5785464282 PubChem-110265499
 28 30 0 0 0
SMALL
GASTEIGER

@<TRIPOS>ATOM
      1 C          13.7713   39.9571    9.3396 C.ar    1  UNL1        0.1339
      2 C          13.5332   38.5899    9.1430 C.ar    1  UNL1        0.0345
      3 C          12.2533   38.0755    9.3499 C.ar    1  UNL1        0.0041
      4 C          11.2217   38.9237    9.7502 C.ar    1  UNL1        0.0149
      5 C          11.4884   40.2865    9.9395 C.ar    1  UNL1        0.0614
      6 N          12.7459   40.7623    9.7306 N.ar    1  UNL1       -0.2348
      7 C          10.4120   41.2326   10.3672 C.3     1  UNL1        0.0581
      8 C           9.9338   40.9159   11.7844 C.3     1  UNL1        0.0089
      9 C           8.7759   41.8313   12.1685 C.3     1  UNL1        0.0196
     10 C           7.6827   41.7441   11.1067 C.3     1  UNL1        0.0969
     11 C           9.2323   41.1990    9.3939 C.3     1  UNL1        0.1027
     12 N           8.2125   42.1636    9.8083 N.3     1  UNL1       -0.1450
     13 S           6.9223   42.0964    8.6452 S.O2    1  UNL1        0.1021
     14 O           5.9068   41.0636    9.0570 O.2     1  UNL1       -0.1408
     15 O           7.4932   41.7102    7.3075 O.2     1  UNL1       -0.1408
     16 C           4.7892   43.5423    8.9446 C.3     1  UNL1        0.1161
     17 C           6.1240   44.0019    7.0945 C.3     1  UNL1        0.1161
     18 N           6.1694   43.6580    8.5055 N.3     1  UNL1       -0.1424
     19 N          15.0685   40.5369    9.1405 N.pl3   1  UNL1       -0.2680
     20 H          15.8110   40.1238    9.6378 H       1  UNL1        0.1565
     21 C          13.7766   43.5997    5.5809 C.3     1  UNL1        0.0522
     22 C          14.7840   43.1384    6.5712 C.ar    1  UNL1        0.0634
     23 C          16.0164   43.7825    6.6630 C.ar    1  UNL1        0.0296
     24 C          16.9343   43.3204    7.6040 C.ar    1  UNL1        0.0634
     25 C          15.4087   41.6485    8.3008 C.ar    1  UNL1        0.2211
     26 C          18.2600   43.9785    7.7350 C.3     1  UNL1        0.0522
     27 N          16.6167   42.2679    8.4018 N.ar    1  UNL1       -0.2179
     28 N          14.5035   42.0888    7.3870 N.ar    1  UNL1       -0.2179
@<TRIPOS>BOND
     1    21    22    1
     2    22    28   ar
     3    23    24   ar
     4    25    27   ar
     5    25    19    1
     6     1     6   ar
     7     2     3   ar
     8     4     5   ar
     9     7     5    1
    10     7     8    1
    11     8     9    1
    12     9    10    1
    13    10    12    1
    14    11    12    1
    15    11     7    1
    16    16    18    1
    17    17    18    1
    18    26    24    1
    19    19     1    1
    20    13    12    1
    21    13    18    1
    22    22    23   ar
    23    24    27   ar
    24    25    28   ar
    25     1     2   ar
    26     3     4   ar
    27     5     6   ar
    28    13    14    2
    29    13    15    2
    30    19    20    1
