@<TRIPOS>MOLECULE
MolPort-002-612-738 2416901 PubChem-1623914 ZINC000002416901 ZINC02416901
 33 36 0 0 0
SMALL
GASTEIGER

@<TRIPOS>ATOM
      1 C          15.9257   39.0791    9.9493 C.ar    1  UNL1        0.1571
      2 C          14.9275   38.1737   10.2739 C.ar    1  UNL1        0.0689
      3 C          13.5460   38.1526   10.1109 C.ar    1  UNL1        0.0074
      4 C          12.8596   37.0431   10.6339 C.ar    1  UNL1        0.0179
      5 C          11.4732   36.9437   10.4978 C.ar    1  UNL1        0.0015
      6 C          10.7977   35.8374   11.0222 C.ar    1  UNL1        0.0001
      7 C          11.5037   34.8275   11.6852 C.ar    1  UNL1        0.0015
      8 C          12.8917   34.9143   11.8307 C.ar    1  UNL1        0.0192
      9 C          13.5818   36.0123   11.3114 C.ar    1  UNL1        0.0829
     10 C          15.5790   37.1778   10.9408 C.ar    1  UNL1        0.1621
     11 N          16.8879   37.4658   11.0328 N.ar    1  UNL1       -0.2329
     12 N          17.1100   38.6308   10.4343 N.ar    1  UNL1       -0.1527
     13 N          14.9373   36.1014   11.4614 N.ar    1  UNL1       -0.2268
     14 C          16.8462   41.2389    8.9460 C.2     1  UNL1        0.2508
     15 N          15.7806   40.3495    9.3028 N.am    1  UNL1       -0.2644
     16 O          17.9893   41.1010    9.4601 O.2     1  UNL1       -0.2698
     17 H          14.8652   40.6377    9.0835 H       1  UNL1        0.1566
     18 C          16.5905   42.3531    8.0170 C.ar    1  UNL1        0.0599
     19 C          15.3002   42.5978    7.5418 C.ar    1  UNL1        0.0448
     20 C          15.0471   43.6576    6.6591 C.ar    1  UNL1        0.1756
     21 C          16.0983   44.4914    6.2406 C.ar    1  UNL1        0.2061
     22 C          17.4113   44.2498    6.7194 C.ar    1  UNL1        0.1756
     23 C          17.6356   43.1816    7.6024 C.ar    1  UNL1        0.0448
     24 C          12.7052   42.9475    6.2739 C.3     1  UNL1        0.2526
     25 O          13.7540   43.9024    6.1828 O.3     1  UNL1       -0.4683
     26 C          14.8197   46.5522    5.6048 C.3     1  UNL1        0.2528
     27 O          15.7793   45.5353    5.3556 O.3     1  UNL1       -0.4654
     28 C          19.6493   45.2463    7.1060 C.3     1  UNL1        0.2526
     29 O          18.4782   45.0636    6.3209 O.3     1  UNL1       -0.4683
     30 C          17.9252   36.6655   11.6661 C.3     1  UNL1        0.1292
     31 C          17.3250   35.7933   12.7575 C.3     1  UNL1        0.0264
     32 C          18.3841   35.0477   14.8872 C.3     1  UNL1        0.0001
     33 C          18.3923   34.9093   13.3764 C.3     1  UNL1        0.0021
@<TRIPOS>BOND
     1    32    33    1
     2    33    31    1
     3    31    30    1
     4    30    11    1
     5     1    15    1
     6     1     2   ar
     7    14    18    1
     8    19    20   ar
     9    20    25    1
    10    24    25    1
    11    21    27    1
    12    21    22   ar
    13    26    27    1
    14    22    29    1
    15    28    29    1
    16    23    18   ar
    17     3     4   ar
    18     5     6   ar
    19     7     8   ar
    20     9    13   ar
    21     9     4   ar
    22    10    11   ar
    23    10     2   ar
    24    11    12   ar
    25    15    14   am
    26     1    12   ar
    27    14    16    2
    28    18    19   ar
    29    20    21   ar
    30    22    23   ar
    31     2     3   ar
    32     4     5   ar
    33     6     7   ar
    34     8     9   ar
    35    10    13   ar
    36    15    17    1
@<TRIPOS>MOLECULE
MolPort-002-612-738 2416901 PubChem-1623914 ZINC000002416901 ZINC02416901
 33 36 0 0 0
SMALL
GASTEIGER

@<TRIPOS>ATOM
      1 C          11.5931   41.6258    8.2942 C.ar    1  UNL1        0.1571
      2 C          12.6072   40.9597    8.9646 C.ar    1  UNL1        0.0689
      3 C          12.6563   40.1587   10.1012 C.ar    1  UNL1        0.0074
      4 C          13.9219   39.6956   10.5002 C.ar    1  UNL1        0.0179
      5 C          14.0506   38.8757   11.6234 C.ar    1  UNL1        0.0015
      6 C          15.3135   38.4204   12.0145 C.ar    1  UNL1        0.0001
      7 C          16.4521   38.7831   11.2865 C.ar    1  UNL1        0.0015
      8 C          16.3390   39.6049   10.1608 C.ar    1  UNL1        0.0192
      9 C          15.0844   40.0672    9.7560 C.ar    1  UNL1        0.0829
     10 C          13.7416   41.3053    8.2902 C.ar    1  UNL1        0.1621
     11 N          13.4410   42.1429    7.2838 N.ar    1  UNL1       -0.2329
     12 N          12.1289   42.3506    7.2811 N.ar    1  UNL1       -0.1527
     13 N          14.9749   40.8776    8.6609 N.ar    1  UNL1       -0.2268
     14 C           9.5201   42.7623    9.2583 C.2     1  UNL1        0.2508
     15 N          10.2010   41.6689    8.6301 N.am    1  UNL1       -0.2644
     16 O          10.1741   43.6645    9.8484 O.2     1  UNL1       -0.2698
     17 H           9.6629   40.8746    8.4091 H       1  UNL1        0.1566
     18 C           8.0476   42.8032    9.2625 C.ar    1  UNL1        0.0599
     19 C           7.3678   43.9110    8.7514 C.ar    1  UNL1        0.0448
     20 C           5.9663   43.9574    8.7492 C.ar    1  UNL1        0.1756
     21 C           5.2256   42.8803    9.2654 C.ar    1  UNL1        0.2061
     22 C           5.9086   41.7514    9.7855 C.ar    1  UNL1        0.1756
     23 C           7.3124   41.7320    9.7749 C.ar    1  UNL1        0.0448
     24 C           4.0629   44.9593    7.5202 C.3     1  UNL1        0.2526
     25 O           5.2853   45.0678    8.2372 O.3     1  UNL1       -0.4683
     26 C           2.9219   41.8922    9.2132 C.3     1  UNL1        0.2528
     27 O           3.8247   42.9883    9.2345 O.3     1  UNL1       -0.4654
     28 C           4.7762   40.5895   11.6614 C.3     1  UNL1        0.2526
     29 O           5.1980   40.6633   10.3057 O.3     1  UNL1       -0.4683
     30 C          14.3618   42.7421    6.3295 C.3     1  UNL1        0.1292
     31 C          15.3398   43.6596    7.0460 C.3     1  UNL1        0.0264
     32 C          17.4714   43.9223    5.7808 C.3     1  UNL1        0.0001
     33 C          16.0984   44.5113    6.0445 C.3     1  UNL1        0.0021
@<TRIPOS>BOND
     1    32    33    1
     2    33    31    1
     3    31    30    1
     4    30    11    1
     5     1    15    1
     6     1     2   ar
     7    14    18    1
     8    19    20   ar
     9    20    25    1
    10    24    25    1
    11    21    27    1
    12    21    22   ar
    13    26    27    1
    14    22    29    1
    15    28    29    1
    16    23    18   ar
    17     3     4   ar
    18     5     6   ar
    19     7     8   ar
    20     9    13   ar
    21     9     4   ar
    22    10    11   ar
    23    10     2   ar
    24    11    12   ar
    25    15    14   am
    26     1    12   ar
    27    14    16    2
    28    18    19   ar
    29    20    21   ar
    30    22    23   ar
    31     2     3   ar
    32     4     5   ar
    33     6     7   ar
    34     8     9   ar
    35    10    13   ar
    36    15    17    1
@<TRIPOS>MOLECULE
MolPort-002-612-738 2416901 PubChem-1623914 ZINC000002416901 ZINC02416901
 33 36 0 0 0
SMALL
GASTEIGER

@<TRIPOS>ATOM
      1 C          11.4409   41.5017    8.3619 C.ar    1  UNL1        0.1571
      2 C          12.5004   40.8911    9.0146 C.ar    1  UNL1        0.0689
      3 C          12.6183   40.1336   10.1757 C.ar    1  UNL1        0.0074
      4 C          13.9123   39.7236   10.5403 C.ar    1  UNL1        0.0179
      5 C          14.1098   38.9490   11.6855 C.ar    1  UNL1        0.0015
      6 C          15.4006   38.5465   12.0421 C.ar    1  UNL1        0.0001
      7 C          16.4983   38.9168   11.2575 C.ar    1  UNL1        0.0015
      8 C          16.3162   39.6935   10.1091 C.ar    1  UNL1        0.0192
      9 C          15.0331   40.1028    9.7382 C.ar    1  UNL1        0.0829
     10 C          13.5966   41.2461    8.2843 C.ar    1  UNL1        0.1621
     11 N          13.2313   42.0374    7.2619 N.ar    1  UNL1       -0.2329
     12 N          11.9142   42.2052    7.3037 N.ar    1  UNL1       -0.1527
     13 N          14.8561   40.8695    8.6207 N.ar    1  UNL1       -0.2268
     14 C           9.3802   42.5968    9.3976 C.2     1  UNL1        0.2508
     15 N          10.0620   41.5149    8.7508 N.am    1  UNL1       -0.2644
     16 O          10.0349   43.5183    9.9563 O.2     1  UNL1       -0.2698
     17 H           9.5346   40.7067    8.5559 H       1  UNL1        0.1566
     18 C           7.9083   42.6035    9.4583 C.ar    1  UNL1        0.0599
     19 C           7.2235   41.6106   10.1623 C.ar    1  UNL1        0.0448
     20 C           5.8227   41.6104   10.2274 C.ar    1  UNL1        0.1756
     21 C           5.0879   42.6182    9.5796 C.ar    1  UNL1        0.2061
     22 C           5.7762   43.6305    8.8632 C.ar    1  UNL1        0.1756
     23 C           7.1790   43.6059    8.8149 C.ar    1  UNL1        0.0448
     24 C           4.1676   40.9063   11.9309 C.3     1  UNL1        0.2526
     25 O           5.1366   40.6151   10.9327 O.3     1  UNL1       -0.4683
     26 C           2.8677   41.5487    9.1179 C.3     1  UNL1        0.2528
     27 O           3.6875   42.5618    9.6825 O.3     1  UNL1       -0.4654
     28 C           3.6516   44.7053    8.1687 C.3     1  UNL1        0.2526
     29 O           5.0716   44.6476    8.2086 O.3     1  UNL1       -0.4683
     30 C          14.0954   42.6291    6.2516 C.3     1  UNL1        0.1292
     31 C          15.3681   43.1598    6.8922 C.3     1  UNL1        0.0264
     32 C          17.4691   43.8638    5.7504 C.3     1  UNL1        0.0001
     33 C          16.0128   44.2067    6.0021 C.3     1  UNL1        0.0021
@<TRIPOS>BOND
     1    32    33    1
     2    33    31    1
     3    31    30    1
     4    30    11    1
     5     1    15    1
     6     1     2   ar
     7    14    18    1
     8    19    20   ar
     9    20    25    1
    10    24    25    1
    11    21    27    1
    12    21    22   ar
    13    26    27    1
    14    22    29    1
    15    28    29    1
    16    23    18   ar
    17     3     4   ar
    18     5     6   ar
    19     7     8   ar
    20     9    13   ar
    21     9     4   ar
    22    10    11   ar
    23    10     2   ar
    24    11    12   ar
    25    15    14   am
    26     1    12   ar
    27    14    16    2
    28    18    19   ar
    29    20    21   ar
    30    22    23   ar
    31     2     3   ar
    32     4     5   ar
    33     6     7   ar
    34     8     9   ar
    35    10    13   ar
    36    15    17    1
@<TRIPOS>MOLECULE
MolPort-002-612-738 2416901 PubChem-1623914 ZINC000002416901 ZINC02416901
 33 36 0 0 0
SMALL
GASTEIGER

@<TRIPOS>ATOM
      1 C          14.5786   41.7490    8.0963 C.ar    1  UNL1        0.1571
      2 C          15.3215   40.7876    8.7635 C.ar    1  UNL1        0.0689
      3 C          15.0215   39.5592    9.3437 C.ar    1  UNL1        0.0074
      4 C          16.0734   38.8843    9.9868 C.ar    1  UNL1        0.0179
      5 C          15.8535   37.6398   10.5812 C.ar    1  UNL1        0.0015
      6 C          16.9050   36.9756   11.2202 C.ar    1  UNL1        0.0001
      7 C          18.1790   37.5521   11.2692 C.ar    1  UNL1        0.0015
      8 C          18.4138   38.7984   10.6801 C.ar    1  UNL1        0.0192
      9 C          17.3744   39.4744   10.0366 C.ar    1  UNL1        0.0829
     10 C          16.5727   41.3250    8.8461 C.ar    1  UNL1        0.1621
     11 N          16.5878   42.5439    8.2813 N.ar    1  UNL1       -0.2329
     12 N          15.3704   42.8158    7.8244 N.ar    1  UNL1       -0.1527
     13 N          17.6018   40.6965    9.4685 N.ar    1  UNL1       -0.2268
     14 C          12.5782   41.9676    6.5251 C.2     1  UNL1        0.2508
     15 N          13.1759   41.7271    7.8051 N.am    1  UNL1       -0.2644
     16 O          13.2396   42.5269    5.6088 O.2     1  UNL1       -0.2698
     17 H          12.5670   41.5285    8.5529 H       1  UNL1        0.1566
     18 C          11.1674   41.6103    6.2965 C.ar    1  UNL1        0.0599
     19 C          10.1746   42.0445    7.1776 C.ar    1  UNL1        0.0448
     20 C           8.8290   41.7112    6.9666 C.ar    1  UNL1        0.1756
     21 C           8.4629   40.9306    5.8567 C.ar    1  UNL1        0.2061
     22 C           9.4653   40.4865    4.9568 C.ar    1  UNL1        0.1756
     23 C          10.8046   40.8353    5.1928 C.ar    1  UNL1        0.0448
     24 C           8.1006   42.4862    9.2040 C.3     1  UNL1        0.2526
     25 O           7.8342   42.1461    7.8499 O.3     1  UNL1       -0.4683
     26 C           6.4643   39.4490    6.1679 C.3     1  UNL1        0.2528
     27 O           7.0987   40.6310    5.7015 O.3     1  UNL1       -0.4654
     28 C           9.8038   38.5007    3.5100 C.3     1  UNL1        0.2526
     29 O           9.1311   39.7083    3.8423 O.3     1  UNL1       -0.4683
     30 C          17.7224   43.4471    8.1618 C.3     1  UNL1        0.1292
     31 C          17.7826   44.0348    6.7608 C.3     1  UNL1        0.0264
     32 C          15.8127   45.1932    5.7652 C.3     1  UNL1        0.0001
     33 C          16.4543   43.8483    6.0504 C.3     1  UNL1        0.0021
@<TRIPOS>BOND
     1    32    33    1
     2    33    31    1
     3    31    30    1
     4    30    11    1
     5     1    15    1
     6     1     2   ar
     7    14    18    1
     8    19    20   ar
     9    20    25    1
    10    24    25    1
    11    21    27    1
    12    21    22   ar
    13    26    27    1
    14    22    29    1
    15    28    29    1
    16    23    18   ar
    17     3     4   ar
    18     5     6   ar
    19     7     8   ar
    20     9    13   ar
    21     9     4   ar
    22    10    11   ar
    23    10     2   ar
    24    11    12   ar
    25    15    14   am
    26     1    12   ar
    27    14    16    2
    28    18    19   ar
    29    20    21   ar
    30    22    23   ar
    31     2     3   ar
    32     4     5   ar
    33     6     7   ar
    34     8     9   ar
    35    10    13   ar
    36    15    17    1
@<TRIPOS>MOLECULE
MolPort-002-612-738 2416901 PubChem-1623914 ZINC000002416901 ZINC02416901
 33 36 0 0 0
SMALL
GASTEIGER

@<TRIPOS>ATOM
      1 C          10.6124   40.0630    6.3422 C.ar    1  UNL1        0.1571
      2 C           9.6402   41.0159    6.6033 C.ar    1  UNL1        0.0689
      3 C           9.4455   41.9520    7.6140 C.ar    1  UNL1        0.0074
      4 C           8.2748   42.7270    7.5478 C.ar    1  UNL1        0.0179
      5 C           8.0157   43.6970    8.5186 C.ar    1  UNL1        0.0015
      6 C           6.8481   44.4628    8.4463 C.ar    1  UNL1        0.0001
      7 C           5.9346   44.2620    7.4055 C.ar    1  UNL1        0.0015
      8 C           6.1797   43.2933    6.4273 C.ar    1  UNL1        0.0192
      9 C           7.3422   42.5207    6.4843 C.ar    1  UNL1        0.0829
     10 C           8.7184   40.8378    5.6135 C.ar    1  UNL1        0.1621
     11 N           9.0953   39.8290    4.8103 N.ar    1  UNL1       -0.2329
     12 N          10.2506   39.3436    5.2511 N.ar    1  UNL1       -0.1527
     13 N           7.5774   41.5678    5.5332 N.ar    1  UNL1       -0.2268
     14 C          11.8120   38.9832    8.3204 C.2     1  UNL1        0.2508
     15 N          11.7784   39.7643    7.1194 N.am    1  UNL1       -0.2644
     16 O          10.7497   38.7516    8.9588 O.2     1  UNL1       -0.2698
     17 H          12.6349   40.1292    6.7990 H       1  UNL1        0.1566
     18 C          13.1008   38.4956    8.8413 C.ar    1  UNL1        0.0599
     19 C          13.9596   37.7542    8.0269 C.ar    1  UNL1        0.0448
     20 C          15.1894   37.2881    8.5137 C.ar    1  UNL1        0.1756
     21 C          15.5732   37.5651    9.8370 C.ar    1  UNL1        0.2061
     22 C          14.7068   38.3181   10.6701 C.ar    1  UNL1        0.1756
     23 C          13.4817   38.7721   10.1562 C.ar    1  UNL1        0.0448
     24 C          15.6424   35.3617    7.0234 C.3     1  UNL1        0.2526
     25 O          16.0498   36.5448    7.6975 O.3     1  UNL1       -0.4683
     26 C          17.3271   35.7782    9.9669 C.3     1  UNL1        0.2528
     27 O          16.8171   37.0699   10.2641 O.3     1  UNL1       -0.4654
     28 C          14.1553   39.1707   12.9328 C.3     1  UNL1        0.2526
     29 O          15.0621   38.6104   11.9921 O.3     1  UNL1       -0.4683
     30 C           8.3928   39.3223    3.6410 C.3     1  UNL1        0.1292
     31 C           9.3789   38.7125    2.6573 C.3     1  UNL1        0.0264
     32 C           9.7524   36.2535    2.4925 C.3     1  UNL1        0.0001
     33 C          10.0718   37.5124    3.2766 C.3     1  UNL1        0.0021
@<TRIPOS>BOND
     1    32    33    1
     2    33    31    1
     3    31    30    1
     4    30    11    1
     5     1    15    1
     6     1     2   ar
     7    14    18    1
     8    19    20   ar
     9    20    25    1
    10    24    25    1
    11    21    27    1
    12    21    22   ar
    13    26    27    1
    14    22    29    1
    15    28    29    1
    16    23    18   ar
    17     3     4   ar
    18     5     6   ar
    19     7     8   ar
    20     9    13   ar
    21     9     4   ar
    22    10    11   ar
    23    10     2   ar
    24    11    12   ar
    25    15    14   am
    26     1    12   ar
    27    14    16    2
    28    18    19   ar
    29    20    21   ar
    30    22    23   ar
    31     2     3   ar
    32     4     5   ar
    33     6     7   ar
    34     8     9   ar
    35    10    13   ar
    36    15    17    1
@<TRIPOS>MOLECULE
MolPort-002-612-738 2416901 PubChem-1623914 ZINC000002416901 ZINC02416901
 33 36 0 0 0
SMALL
GASTEIGER

@<TRIPOS>ATOM
      1 C          14.0284   39.8491    9.1992 C.ar    1  UNL1        0.1571
      2 C          14.8620   40.8388    8.7021 C.ar    1  UNL1        0.0689
      3 C          14.7255   41.8248    7.7301 C.ar    1  UNL1        0.0074
      4 C          15.8507   42.6273    7.4742 C.ar    1  UNL1        0.0179
      5 C          15.7873   43.6471    6.5220 C.ar    1  UNL1        0.0015
      6 C          16.9116   44.4400    6.2723 C.ar    1  UNL1        0.0001
      7 C          18.1031   44.2168    6.9712 C.ar    1  UNL1        0.0015
      8 C          18.1820   43.1983    7.9261 C.ar    1  UNL1        0.0192
      9 C          17.0675   42.3981    8.1884 C.ar    1  UNL1        0.0829
     10 C          16.0455   40.6408    9.3512 C.ar    1  UNL1        0.1621
     11 N          15.9456   39.5867   10.1780 N.ar    1  UNL1       -0.2329
     12 N          14.7165   39.0908   10.0882 N.ar    1  UNL1       -0.1527
     13 N          17.1473   41.3969    9.1154 N.ar    1  UNL1       -0.2268
     14 C          11.5669   40.4494    8.8846 C.2     1  UNL1        0.2508
     15 N          12.6835   39.5548    8.8026 N.am    1  UNL1       -0.2644
     16 O          11.6284   41.4791    9.6097 O.2     1  UNL1       -0.2698
     17 H          12.5106   38.6558    8.4405 H       1  UNL1        0.1566
     18 C          10.3220   40.1354    8.1623 C.ar    1  UNL1        0.0599
     19 C          10.3424   39.2955    7.0467 C.ar    1  UNL1        0.0448
     20 C           9.1620   38.9892    6.3545 C.ar    1  UNL1        0.1756
     21 C           7.9361   39.5288    6.7805 C.ar    1  UNL1        0.2061
     22 C           7.9070   40.3821    7.9130 C.ar    1  UNL1        0.1756
     23 C           9.1042   40.6715    8.5868 C.ar    1  UNL1        0.0448
     24 C           9.8836   38.4692    4.0424 C.3     1  UNL1        0.2526
     25 O           9.1827   38.1477    5.2363 O.3     1  UNL1       -0.4683
     26 C           5.6133   39.9735    5.9479 C.3     1  UNL1        0.2528
     27 O           6.7898   39.1838    6.0444 O.3     1  UNL1       -0.4654
     28 C           6.5165   42.3282    8.5689 C.3     1  UNL1        0.2526
     29 O           6.7012   40.9340    8.3612 O.3     1  UNL1       -0.4683
     30 C          16.9796   39.0464   11.0479 C.3     1  UNL1        0.1292
     31 C          18.2271   38.7187   10.2428 C.3     1  UNL1        0.0264
     32 C          17.8872   36.3929    9.4131 C.3     1  UNL1        0.0001
     33 C          18.6087   37.2612   10.4266 C.3     1  UNL1        0.0021
@<TRIPOS>BOND
     1    32    33    1
     2    33    31    1
     3    31    30    1
     4    30    11    1
     5     1    15    1
     6     1     2   ar
     7    14    18    1
     8    19    20   ar
     9    20    25    1
    10    24    25    1
    11    21    27    1
    12    21    22   ar
    13    26    27    1
    14    22    29    1
    15    28    29    1
    16    23    18   ar
    17     3     4   ar
    18     5     6   ar
    19     7     8   ar
    20     9    13   ar
    21     9     4   ar
    22    10    11   ar
    23    10     2   ar
    24    11    12   ar
    25    15    14   am
    26     1    12   ar
    27    14    16    2
    28    18    19   ar
    29    20    21   ar
    30    22    23   ar
    31     2     3   ar
    32     4     5   ar
    33     6     7   ar
    34     8     9   ar
    35    10    13   ar
    36    15    17    1
@<TRIPOS>MOLECULE
MolPort-002-612-738 2416901 PubChem-1623914 ZINC000002416901 ZINC02416901
 33 36 0 0 0
SMALL
GASTEIGER

@<TRIPOS>ATOM
      1 C          10.6423   41.5492    9.9195 C.ar    1  UNL1        0.1571
      2 C           9.7098   41.1174    8.9892 C.ar    1  UNL1        0.0689
      3 C           9.7728   40.7596    7.6461 C.ar    1  UNL1        0.0074
      4 C           8.5621   40.4138    7.0214 C.ar    1  UNL1        0.0179
      5 C           8.5462   40.0304    5.6786 C.ar    1  UNL1        0.0015
      6 C           7.3374   39.6892    5.0641 C.ar    1  UNL1        0.0001
      7 C           6.1405   39.7309    5.7877 C.ar    1  UNL1        0.0015
      8 C           6.1406   40.1146    7.1324 C.ar    1  UNL1        0.0192
      9 C           7.3399   40.4572    7.7615 C.ar    1  UNL1        0.0829
     10 C           8.5211   41.1619    9.6570 C.ar    1  UNL1        0.1621
     11 N           8.7135   41.6093   10.9090 N.ar    1  UNL1       -0.2329
     12 N          10.0080   41.8552   11.0783 N.ar    1  UNL1       -0.1527
     13 N           7.3389   40.8407    9.0733 N.ar    1  UNL1       -0.2268
     14 C          12.9416   40.8779    9.0360 C.2     1  UNL1        0.2508
     15 N          12.0452   41.7617    9.7210 N.am    1  UNL1       -0.2644
     16 O          12.6122   39.6804    8.8184 O.2     1  UNL1       -0.2698
     17 H          12.4284   42.5906   10.0888 H       1  UNL1        0.1566
     18 C          14.2759   41.3553    8.6336 C.ar    1  UNL1        0.0599
     19 C          15.4271   40.7957    9.1924 C.ar    1  UNL1        0.0448
     20 C          16.7013   41.2421    8.8136 C.ar    1  UNL1        0.1756
     21 C          16.8336   42.2655    7.8594 C.ar    1  UNL1        0.2061
     22 C          15.6693   42.8383    7.2868 C.ar    1  UNL1        0.1756
     23 C          14.4064   42.3717    7.6848 C.ar    1  UNL1        0.0448
     24 C          17.8232   39.5465   10.2288 C.3     1  UNL1        0.2526
     25 O          17.8548   40.6814    9.3739 O.3     1  UNL1       -0.4683
     26 C          18.6333   43.9951    7.6225 C.3     1  UNL1        0.2528
     27 O          18.1374   42.6680    7.5229 O.3     1  UNL1       -0.4654
     28 C          14.6370   44.5118    5.7752 C.3     1  UNL1        0.2526
     29 O          15.7695   43.8586    6.3337 O.3     1  UNL1       -0.4683
     30 C           7.7066   41.8026   11.9416 C.3     1  UNL1        0.1292
     31 C           6.3462   42.0532   11.3104 C.3     1  UNL1        0.0264
     32 C           4.2700   40.8573   10.6228 C.3     1  UNL1        0.0001
     33 C           5.3909   40.9216   11.6432 C.3     1  UNL1        0.0021
@<TRIPOS>BOND
     1    32    33    1
     2    33    31    1
     3    31    30    1
     4    30    11    1
     5     1    15    1
     6     1     2   ar
     7    14    18    1
     8    19    20   ar
     9    20    25    1
    10    24    25    1
    11    21    27    1
    12    21    22   ar
    13    26    27    1
    14    22    29    1
    15    28    29    1
    16    23    18   ar
    17     3     4   ar
    18     5     6   ar
    19     7     8   ar
    20     9    13   ar
    21     9     4   ar
    22    10    11   ar
    23    10     2   ar
    24    11    12   ar
    25    15    14   am
    26     1    12   ar
    27    14    16    2
    28    18    19   ar
    29    20    21   ar
    30    22    23   ar
    31     2     3   ar
    32     4     5   ar
    33     6     7   ar
    34     8     9   ar
    35    10    13   ar
    36    15    17    1
@<TRIPOS>MOLECULE
MolPort-002-612-738 2416901 PubChem-1623914 ZINC000002416901 ZINC02416901
 33 36 0 0 0
SMALL
GASTEIGER

@<TRIPOS>ATOM
      1 C          12.3097   42.2216    8.2550 C.ar    1  UNL1        0.1571
      2 C          13.1547   41.3388    8.9092 C.ar    1  UNL1        0.0689
      3 C          13.0116   40.4850    9.9983 C.ar    1  UNL1        0.0074
      4 C          14.1514   39.7670   10.3992 C.ar    1  UNL1        0.0179
      5 C          14.0832   38.8800   11.4759 C.ar    1  UNL1        0.0015
      6 C          15.2221   38.1706   11.8693 C.ar    1  UNL1        0.0001
      7 C          16.4330   38.3452   11.1903 C.ar    1  UNL1        0.0015
      8 C          16.5169   39.2312   10.1116 C.ar    1  UNL1        0.0192
      9 C          15.3880   39.9465    9.7051 C.ar    1  UNL1        0.0829
     10 C          14.3564   41.4947    8.2826 C.ar    1  UNL1        0.1621
     11 N          14.2554   42.4260    7.3196 N.ar    1  UNL1       -0.2329
     12 N          13.0079   42.8819    7.2982 N.ar    1  UNL1       -0.1527
     13 N          15.4723   40.8191    8.6565 N.ar    1  UNL1       -0.2268
     14 C           9.7950   41.9718    7.8915 C.2     1  UNL1        0.2508
     15 N          10.9407   42.5139    8.5602 N.am    1  UNL1       -0.2644
     16 O           9.9178   41.4208    6.7640 O.2     1  UNL1       -0.2698
     17 H          10.7716   43.1449    9.2968 H       1  UNL1        0.1566
     18 C           8.4596   42.1083    8.4984 C.ar    1  UNL1        0.0599
     19 C           8.2265   41.6708    9.8041 C.ar    1  UNL1        0.0448
     20 C           6.9593   41.7990   10.3907 C.ar    1  UNL1        0.1756
     21 C           5.9024   42.3742    9.6645 C.ar    1  UNL1        0.2061
     22 C           6.1315   42.8217    8.3383 C.ar    1  UNL1        0.1756
     23 C           7.4103   42.6809    7.7763 C.ar    1  UNL1        0.0448
     24 C           7.7742   41.0331   12.6012 C.3     1  UNL1        0.2526
     25 O           6.7258   41.3601   11.6991 O.3     1  UNL1       -0.4683
     26 C           3.5953   41.5397   10.1810 C.3     1  UNL1        0.2528
     27 O           4.6574   42.4739   10.3086 O.3     1  UNL1       -0.4654
     28 C           4.6819   44.7483    7.7568 C.3     1  UNL1        0.2526
     29 O           5.0987   43.3993    7.5905 O.3     1  UNL1       -0.4683
     30 C          15.3054   42.8860    6.4232 C.3     1  UNL1        0.1292
     31 C          15.9037   44.1863    6.9362 C.3     1  UNL1        0.0264
     32 C          17.6699   43.6596    8.6145 C.3     1  UNL1        0.0001
     33 C          17.3953   44.0280    7.1686 C.3     1  UNL1        0.0021
@<TRIPOS>BOND
     1    32    33    1
     2    33    31    1
     3    31    30    1
     4    30    11    1
     5     1    15    1
     6     1     2   ar
     7    14    18    1
     8    19    20   ar
     9    20    25    1
    10    24    25    1
    11    21    27    1
    12    21    22   ar
    13    26    27    1
    14    22    29    1
    15    28    29    1
    16    23    18   ar
    17     3     4   ar
    18     5     6   ar
    19     7     8   ar
    20     9    13   ar
    21     9     4   ar
    22    10    11   ar
    23    10     2   ar
    24    11    12   ar
    25    15    14   am
    26     1    12   ar
    27    14    16    2
    28    18    19   ar
    29    20    21   ar
    30    22    23   ar
    31     2     3   ar
    32     4     5   ar
    33     6     7   ar
    34     8     9   ar
    35    10    13   ar
    36    15    17    1
@<TRIPOS>MOLECULE
MolPort-002-612-738 2416901 PubChem-1623914 ZINC000002416901 ZINC02416901
 33 36 0 0 0
SMALL
GASTEIGER

@<TRIPOS>ATOM
      1 C           8.9259   40.9820    7.1008 C.ar    1  UNL1        0.1571
      2 C           9.3741   40.1457    6.0903 C.ar    1  UNL1        0.0689
      3 C           8.8302   39.6930    4.8924 C.ar    1  UNL1        0.0074
      4 C           9.6020   38.7876    4.1440 C.ar    1  UNL1        0.0179
      5 C           9.1294   38.2989    2.9241 C.ar    1  UNL1        0.0015
      6 C           9.9028   37.3974    2.1863 C.ar    1  UNL1        0.0001
      7 C          11.1498   36.9799    2.6645 C.ar    1  UNL1        0.0015
      8 C          11.6353   37.4593    3.8850 C.ar    1  UNL1        0.0192
      9 C          10.8756   38.3615    4.6337 C.ar    1  UNL1        0.0829
     10 C          10.5867   39.7030    6.5314 C.ar    1  UNL1        0.1621
     11 N          10.8532   40.2220    7.7416 N.ar    1  UNL1       -0.2329
     12 N           9.8400   41.0018    8.1022 N.ar    1  UNL1       -0.1527
     13 N          11.3461   38.8233    5.8309 N.ar    1  UNL1       -0.2268
     14 C           6.7142   41.5397    8.2479 C.2     1  UNL1        0.2508
     15 N           7.6664   41.6600    7.1836 N.am    1  UNL1       -0.2644
     16 O           6.7831   40.5755    9.0574 O.2     1  UNL1       -0.2698
     17 H           7.4338   42.2637    6.4415 H       1  UNL1        0.1566
     18 C           5.6171   42.5160    8.3632 C.ar    1  UNL1        0.0599
     19 C           4.5066   42.2428    9.1648 C.ar    1  UNL1        0.0448
     20 C           3.4588   43.1673    9.2823 C.ar    1  UNL1        0.1756
     21 C           3.5165   44.3885    8.5890 C.ar    1  UNL1        0.2061
     22 C           4.6414   44.6736    7.7735 C.ar    1  UNL1        0.1756
     23 C           5.6758   43.7296    7.6745 C.ar    1  UNL1        0.0448
     24 C           2.3230   41.8379   11.0372 C.3     1  UNL1        0.2526
     25 O           2.3458   42.8932   10.0855 O.3     1  UNL1       -0.4683
     26 C           1.5973   45.7341    7.6990 C.3     1  UNL1        0.2528
     27 O           2.4350   45.2716    8.7485 O.3     1  UNL1       -0.4654
     28 C           5.8832   46.2744    6.3430 C.3     1  UNL1        0.2526
     29 O           4.7273   45.8816    7.0715 O.3     1  UNL1       -0.4683
     30 C          12.0394   40.0008    8.5549 C.3     1  UNL1        0.1292
     31 C          12.8315   41.2913    8.6932 C.3     1  UNL1        0.0264
     32 C          10.8811   41.6251   10.2090 C.3     1  UNL1        0.0001
     33 C          12.2284   42.1701    9.7737 C.3     1  UNL1        0.0021
@<TRIPOS>BOND
     1    32    33    1
     2    33    31    1
     3    31    30    1
     4    30    11    1
     5     1    15    1
     6     1     2   ar
     7    14    18    1
     8    19    20   ar
     9    20    25    1
    10    24    25    1
    11    21    27    1
    12    21    22   ar
    13    26    27    1
    14    22    29    1
    15    28    29    1
    16    23    18   ar
    17     3     4   ar
    18     5     6   ar
    19     7     8   ar
    20     9    13   ar
    21     9     4   ar
    22    10    11   ar
    23    10     2   ar
    24    11    12   ar
    25    15    14   am
    26     1    12   ar
    27    14    16    2
    28    18    19   ar
    29    20    21   ar
    30    22    23   ar
    31     2     3   ar
    32     4     5   ar
    33     6     7   ar
    34     8     9   ar
    35    10    13   ar
    36    15    17    1
@<TRIPOS>MOLECULE
MolPort-002-612-738 2416901 PubChem-1623914 ZINC000002416901 ZINC02416901
 33 36 0 0 0
SMALL
GASTEIGER

@<TRIPOS>ATOM
      1 C          10.7235   41.3971    8.3796 C.ar    1  UNL1        0.1571
      2 C          11.2597   40.1582    8.6942 C.ar    1  UNL1        0.0689
      3 C          10.7795   39.0325    9.3559 C.ar    1  UNL1        0.0074
      4 C          11.6733   37.9604    9.5205 C.ar    1  UNL1        0.0179
      5 C          11.2606   36.7908   10.1627 C.ar    1  UNL1        0.0015
      6 C          12.1564   35.7293   10.3236 C.ar    1  UNL1        0.0001
      7 C          13.4674   35.8323    9.8453 C.ar    1  UNL1        0.0015
      8 C          13.8953   36.9977    9.2018 C.ar    1  UNL1        0.0192
      9 C          13.0124   38.0668    9.0318 C.ar    1  UNL1        0.0829
     10 C          12.5499   40.2276    8.2562 C.ar    1  UNL1        0.1621
     11 N          12.7904   41.4378    7.7246 N.ar    1  UNL1       -0.2329
     12 N          11.6806   42.1637    7.8007 N.ar    1  UNL1       -0.1527
     13 N          13.4333   39.2092    8.4108 N.ar    1  UNL1       -0.2268
     14 C           8.2632   41.8046    7.8329 C.2     1  UNL1        0.2508
     15 N           9.4126   41.8880    8.6848 N.am    1  UNL1       -0.2644
     16 O           8.3986   41.5590    6.6036 O.2     1  UNL1       -0.2698
     17 H           9.2902   42.3224    9.5598 H       1  UNL1        0.1566
     18 C           6.9219   42.0620    8.3850 C.ar    1  UNL1        0.0599
     19 C           6.3247   43.3162    8.2404 C.ar    1  UNL1        0.0448
     20 C           5.0473   43.5694    8.7606 C.ar    1  UNL1        0.1756
     21 C           4.3493   42.5548    9.4379 C.ar    1  UNL1        0.2061
     22 C           4.9488   41.2782    9.5881 C.ar    1  UNL1        0.1756
     23 C           6.2287   41.0529    9.0571 C.ar    1  UNL1        0.0448
     24 C           3.5174   45.1228    7.5843 C.3     1  UNL1        0.2526
     25 O           4.4491   44.8264    8.6159 O.3     1  UNL1       -0.4683
     26 C           2.5857   42.5113   11.2195 C.3     1  UNL1        0.2528
     27 O           3.0739   42.8720    9.9355 O.3     1  UNL1       -0.4654
     28 C           4.3281   40.0778   11.6678 C.3     1  UNL1        0.2526
     29 O           4.2778   40.2479   10.2572 O.3     1  UNL1       -0.4683
     30 C          14.0374   41.9156    7.1465 C.3     1  UNL1        0.1292
     31 C          13.7559   42.9504    6.0686 C.3     1  UNL1        0.0264
     32 C          15.9440   43.7315    6.9717 C.3     1  UNL1        0.0001
     33 C          14.6933   44.1353    6.2138 C.3     1  UNL1        0.0021
@<TRIPOS>BOND
     1    32    33    1
     2    33    31    1
     3    31    30    1
     4    30    11    1
     5     1    15    1
     6     1     2   ar
     7    14    18    1
     8    19    20   ar
     9    20    25    1
    10    24    25    1
    11    21    27    1
    12    21    22   ar
    13    26    27    1
    14    22    29    1
    15    28    29    1
    16    23    18   ar
    17     3     4   ar
    18     5     6   ar
    19     7     8   ar
    20     9    13   ar
    21     9     4   ar
    22    10    11   ar
    23    10     2   ar
    24    11    12   ar
    25    15    14   am
    26     1    12   ar
    27    14    16    2
    28    18    19   ar
    29    20    21   ar
    30    22    23   ar
    31     2     3   ar
    32     4     5   ar
    33     6     7   ar
    34     8     9   ar
    35    10    13   ar
    36    15    17    1
