@<TRIPOS>MOLECULE
MolPort-003-001-172 6890889 CSSS00121593491 MCULE-1736763965 PubChem-3406918 ZINC000006890889 ZINC06890889
 22 23 0 0 0
SMALL
GASTEIGER

@<TRIPOS>ATOM
      1 C          12.5823   41.8346    6.4519 C.2     1  UNL1        0.2517
      2 N          12.9361   43.0159    5.7205 N.am    1  UNL1       -0.2480
      3 O          13.3724   41.3563    7.3111 O.2     1  UNL1       -0.2697
      4 H          12.2885   43.3528    5.0599 H       1  UNL1        0.1581
      5 C          11.2889   41.1757    6.1986 C.ar    1  UNL1        0.0548
      6 C          11.0579   40.5076    4.9883 C.ar    1  UNL1        0.0190
      7 C           9.8323   39.8811    4.7435 C.ar    1  UNL1        0.0917
      8 C           8.8174   39.9158    5.7122 C.ar    1  UNL1        0.1492
      9 C           9.0492   40.5854    6.9246 C.ar    1  UNL1        0.0379
     10 C          10.2753   41.2099    7.1648 C.ar    1  UNL1        0.0077
     11 CL          9.5887   39.0570    3.2139 Cl      1  UNL1       -0.0791
     12 C           6.3979   39.6160    6.1446 C.3     1  UNL1        0.2525
     13 O           7.5953   39.2848    5.4547 O.3     1  UNL1       -0.4706
     14 C          14.1586   43.7425    5.8773 C.ar    1  UNL1        0.2619
     15 N          16.1225   44.2229    6.4102 N.ar    1  UNL1       -0.1497
     16 N          15.6139   45.2731    5.7890 N.ar    1  UNL1       -0.0438
     17 N          14.3667   45.0014    5.4395 N.ar    1  UNL1       -0.0918
     18 N          15.2462   43.2357    6.4853 N.ar    1  UNL1       -0.1137
     19 C          17.4821   44.1573    6.9179 C.3     1  UNL1        0.1514
     20 C          17.4840   43.5980    8.3310 C.3     1  UNL1        0.0283
     21 C          16.8595   41.3243    9.1405 C.3     1  UNL1        0.0001
     22 C          17.8512   42.1250    8.3175 C.3     1  UNL1        0.0021
@<TRIPOS>BOND
     1    21    22    1
     2    22    20    1
     3    20    19    1
     4    19    15    1
     5    14    17   ar
     6    14     2    1
     7     1     5    1
     8     6     7   ar
     9     7    11    1
    10     8    13    1
    11     8     9   ar
    12    12    13    1
    13    10     5   ar
    14    15    16   ar
    15    15    18   ar
    16     2     1   am
    17    14    18   ar
    18     1     3    2
    19     5     6   ar
    20     7     8   ar
    21     9    10   ar
    22    16    17   ar
    23     2     4    1
@<TRIPOS>MOLECULE
MolPort-003-001-172 6890889 CSSS00121593491 MCULE-1736763965 PubChem-3406918 ZINC000006890889 ZINC06890889
 22 23 0 0 0
SMALL
GASTEIGER

@<TRIPOS>ATOM
      1 C           7.6465   42.4402    8.8540 C.2     1  UNL1        0.2517
      2 N           8.6775   41.7637    9.5857 N.am    1  UNL1       -0.2480
      3 O           7.9264   43.0852    7.8068 O.2     1  UNL1       -0.2697
      4 H           8.4123   41.2733   10.3971 H       1  UNL1        0.1581
      5 C           6.2526   42.3818    9.3282 C.ar    1  UNL1        0.0548
      6 C           5.8260   41.3291   10.1495 C.ar    1  UNL1        0.0190
      7 C           4.5044   41.2695   10.6017 C.ar    1  UNL1        0.0917
      8 C           3.5888   42.2681   10.2355 C.ar    1  UNL1        0.1492
      9 C           4.0166   43.3225    9.4126 C.ar    1  UNL1        0.0379
     10 C           5.3380   43.3779    8.9632 C.ar    1  UNL1        0.0077
     11 CL          4.0159   39.9329   11.6278 Cl      1  UNL1       -0.0791
     12 C           1.9193   42.3713   12.0612 C.3     1  UNL1        0.2525
     13 O           2.2690   42.1967   10.6949 O.3     1  UNL1       -0.4706
     14 C          10.0623   41.7470    9.2264 C.ar    1  UNL1        0.2619
     15 N          11.9431   41.0632    8.6213 N.ar    1  UNL1       -0.1497
     16 N          12.0432   42.3656    8.8240 N.ar    1  UNL1       -0.0438
     17 N          10.8662   42.8302    9.2116 N.ar    1  UNL1       -0.0918
     18 N          10.7161   40.6309    8.8573 N.ar    1  UNL1       -0.1137
     19 C          13.0388   40.2235    8.1685 C.3     1  UNL1        0.1514
     20 C          14.3681   40.9010    8.4572 C.3     1  UNL1        0.0283
     21 C          14.2637   39.6710   10.6231 C.3     1  UNL1        0.0001
     22 C          15.1596   40.1024    9.4773 C.3     1  UNL1        0.0021
@<TRIPOS>BOND
     1    21    22    1
     2    22    20    1
     3    20    19    1
     4    19    15    1
     5    14    17   ar
     6    14     2    1
     7     1     5    1
     8     6     7   ar
     9     7    11    1
    10     8    13    1
    11     8     9   ar
    12    12    13    1
    13    10     5   ar
    14    15    16   ar
    15    15    18   ar
    16     2     1   am
    17    14    18   ar
    18     1     3    2
    19     5     6   ar
    20     7     8   ar
    21     9    10   ar
    22    16    17   ar
    23     2     4    1
@<TRIPOS>MOLECULE
MolPort-003-001-172 6890889 CSSS00121593491 MCULE-1736763965 PubChem-3406918 ZINC000006890889 ZINC06890889
 22 23 0 0 0
SMALL
GASTEIGER

@<TRIPOS>ATOM
      1 C          10.2792   42.5521    9.6462 C.2     1  UNL1        0.2517
      2 N          10.7932   41.2284    9.4472 N.am    1  UNL1       -0.2480
      3 O          10.9966   43.4406   10.1818 O.2     1  UNL1       -0.2697
      4 H          10.1973   40.5678    9.0256 H       1  UNL1        0.1581
      5 C           8.9055   42.8760    9.2227 C.ar    1  UNL1        0.0548
      6 C           8.0276   41.8590    8.8232 C.ar    1  UNL1        0.0190
      7 C           6.7235   42.1616    8.4206 C.ar    1  UNL1        0.0917
      8 C           6.2796   43.4929    8.4128 C.ar    1  UNL1        0.1492
      9 C           7.1594   44.5116    8.8131 C.ar    1  UNL1        0.0379
     10 C           8.4616   44.2045    9.2145 C.ar    1  UNL1        0.0077
     11 CL          5.6603   40.8555    7.9289 Cl      1  UNL1       -0.0791
     12 C           3.8668   43.7602    8.9010 C.3     1  UNL1        0.2525
     13 O           4.9718   43.7823    8.0077 O.3     1  UNL1       -0.4706
     14 C          12.1061   40.7945    9.8146 C.ar    1  UNL1        0.2619
     15 N          14.1678   40.4520    9.7548 N.ar    1  UNL1       -0.1497
     16 N          13.7146   39.9359   10.8841 N.ar    1  UNL1       -0.0438
     17 N          12.4080   40.1345   10.9517 N.ar    1  UNL1       -0.0918
     18 N          13.1942   41.0059    9.0525 N.ar    1  UNL1       -0.1137
     19 C          15.5645   40.4353    9.3550 C.3     1  UNL1        0.1514
     20 C          15.8715   41.6421    8.4839 C.3     1  UNL1        0.0283
     21 C          17.4314   43.5834    8.3692 C.3     1  UNL1        0.0001
     22 C          17.2971   42.1116    8.7120 C.3     1  UNL1        0.0021
@<TRIPOS>BOND
     1    21    22    1
     2    22    20    1
     3    20    19    1
     4    19    15    1
     5    14    17   ar
     6    14     2    1
     7     1     5    1
     8     6     7   ar
     9     7    11    1
    10     8    13    1
    11     8     9   ar
    12    12    13    1
    13    10     5   ar
    14    15    16   ar
    15    15    18   ar
    16     2     1   am
    17    14    18   ar
    18     1     3    2
    19     5     6   ar
    20     7     8   ar
    21     9    10   ar
    22    16    17   ar
    23     2     4    1
@<TRIPOS>MOLECULE
MolPort-003-001-172 6890889 CSSS00121593491 MCULE-1736763965 PubChem-3406918 ZINC000006890889 ZINC06890889
 22 23 0 0 0
SMALL
GASTEIGER

@<TRIPOS>ATOM
      1 C          11.5776   41.4587    6.5179 C.2     1  UNL1        0.2517
      2 N          10.4476   42.1749    7.0335 N.am    1  UNL1       -0.2480
      3 O          11.4112   40.4082    5.8399 O.2     1  UNL1       -0.2697
      4 H          10.6257   42.9892    7.5574 H       1  UNL1        0.1581
      5 C          12.9407   41.9526    6.7816 C.ar    1  UNL1        0.0548
      6 C          13.4027   43.1236    6.1653 C.ar    1  UNL1        0.0190
      7 C          14.6951   43.5959    6.4124 C.ar    1  UNL1        0.0917
      8 C          15.5455   42.8982    7.2841 C.ar    1  UNL1        0.1492
      9 C          15.0823   41.7250    7.9013 C.ar    1  UNL1        0.0379
     10 C          13.7901   41.2569    7.6513 C.ar    1  UNL1        0.0077
     11 CL         15.2299   45.0661    5.6183 Cl      1  UNL1       -0.0791
     12 C          17.4196   43.4121    8.8186 C.3     1  UNL1        0.2525
     13 O          16.8368   43.3817    7.5229 O.3     1  UNL1       -0.4706
     14 C           9.0808   41.7963    6.8449 C.ar    1  UNL1        0.2619
     15 N           7.1376   41.1319    7.2372 N.ar    1  UNL1       -0.1497
     16 N           7.2088   41.4028    5.9454 N.ar    1  UNL1       -0.0438
     17 N           8.4308   41.8250    5.6631 N.ar    1  UNL1       -0.0918
     18 N           8.2883   41.3682    7.8439 N.ar    1  UNL1       -0.1137
     19 C           5.9360   40.6622    7.9053 C.3     1  UNL1        0.1514
     20 C           5.7452   41.4049    9.2173 C.3     1  UNL1        0.0283
     21 C           3.2642   41.6106    9.3496 C.3     1  UNL1        0.0001
     22 C           4.4897   40.9228    9.9216 C.3     1  UNL1        0.0021
@<TRIPOS>BOND
     1    21    22    1
     2    22    20    1
     3    20    19    1
     4    19    15    1
     5    14    17   ar
     6    14     2    1
     7     1     5    1
     8     6     7   ar
     9     7    11    1
    10     8    13    1
    11     8     9   ar
    12    12    13    1
    13    10     5   ar
    14    15    16   ar
    15    15    18   ar
    16     2     1   am
    17    14    18   ar
    18     1     3    2
    19     5     6   ar
    20     7     8   ar
    21     9    10   ar
    22    16    17   ar
    23     2     4    1
@<TRIPOS>MOLECULE
MolPort-003-001-172 6890889 CSSS00121593491 MCULE-1736763965 PubChem-3406918 ZINC000006890889 ZINC06890889
 22 23 0 0 0
SMALL
GASTEIGER

@<TRIPOS>ATOM
      1 C          12.2756   41.5080    6.5899 C.2     1  UNL1        0.2517
      2 N          11.1323   42.0356    5.9041 N.am    1  UNL1       -0.2480
      3 O          12.2229   40.3726    7.1369 O.2     1  UNL1       -0.2697
      4 H          11.2197   42.9257    5.4927 H       1  UNL1        0.1581
      5 C          13.5187   42.2963    6.6561 C.ar    1  UNL1        0.0548
      6 C          14.5637   41.9036    7.5037 C.ar    1  UNL1        0.0190
      7 C          15.7449   42.6485    7.5699 C.ar    1  UNL1        0.0917
      8 C          15.8956   43.8017    6.7844 C.ar    1  UNL1        0.1492
      9 C          14.8484   44.1949    5.9354 C.ar    1  UNL1        0.0379
     10 C          13.6700   43.4475    5.8726 C.ar    1  UNL1        0.0077
     11 CL         17.0258   42.1185    8.6453 Cl      1  UNL1       -0.0791
     12 C          18.2867   44.0047    7.3943 C.3     1  UNL1        0.2525
     13 O          17.0829   44.5383    6.8599 O.3     1  UNL1       -0.4706
     14 C           9.8742   41.3672    5.7722 C.ar    1  UNL1        0.2619
     15 N           7.9360   40.6964    6.1778 N.ar    1  UNL1       -0.1497
     16 N           8.2960   40.1826    5.0143 N.ar    1  UNL1       -0.0438
     17 N           9.5232   40.5876    4.7288 N.ar    1  UNL1       -0.0918
     18 N           8.8936   41.4509    6.6892 N.ar    1  UNL1       -0.1137
     19 C           6.6398   40.4793    6.7972 C.3     1  UNL1        0.1514
     20 C           6.6095   41.1135    8.1779 C.3     1  UNL1        0.0283
     21 C           5.1924   41.5748   10.1765 C.3     1  UNL1        0.0001
     22 C           5.1965   41.1071    8.7331 C.3     1  UNL1        0.0021
@<TRIPOS>BOND
     1    21    22    1
     2    22    20    1
     3    20    19    1
     4    19    15    1
     5    14    17   ar
     6    14     2    1
     7     1     5    1
     8     6     7   ar
     9     7    11    1
    10     8    13    1
    11     8     9   ar
    12    12    13    1
    13    10     5   ar
    14    15    16   ar
    15    15    18   ar
    16     2     1   am
    17    14    18   ar
    18     1     3    2
    19     5     6   ar
    20     7     8   ar
    21     9    10   ar
    22    16    17   ar
    23     2     4    1
@<TRIPOS>MOLECULE
MolPort-003-001-172 6890889 CSSS00121593491 MCULE-1736763965 PubChem-3406918 ZINC000006890889 ZINC06890889
 22 23 0 0 0
SMALL
GASTEIGER

@<TRIPOS>ATOM
      1 C          12.4337   41.3421    9.2374 C.2     1  UNL1        0.2517
      2 N          11.4650   41.6960   10.2335 N.am    1  UNL1       -0.2480
      3 O          12.3124   41.7603    8.0535 O.2     1  UNL1       -0.2697
      4 H          11.6004   41.3463   11.1438 H       1  UNL1        0.1581
      5 C          13.5768   40.4854    9.5985 C.ar    1  UNL1        0.0548
      6 C          13.3927   39.3670   10.4231 C.ar    1  UNL1        0.0190
      7 C          14.4743   38.5513   10.7684 C.ar    1  UNL1        0.0917
      8 C          15.7603   38.8465   10.2902 C.ar    1  UNL1        0.1492
      9 C          15.9443   39.9671    9.4641 C.ar    1  UNL1        0.0379
     10 C          14.8606   40.7792    9.1217 C.ar    1  UNL1        0.0077
     11 CL         14.1959   37.1621   11.8032 Cl      1  UNL1       -0.0791
     12 C          18.1900   38.4326   10.5280 C.3     1  UNL1        0.2525
     13 O          16.8343   38.0220   10.6432 O.3     1  UNL1       -0.4706
     14 C          10.3168   42.5185   10.0056 C.ar    1  UNL1        0.2619
     15 N           8.3750   43.1154    9.5111 N.ar    1  UNL1       -0.1497
     16 N           9.0443   44.2002    9.8611 N.ar    1  UNL1       -0.0438
     17 N          10.2819   43.8558   10.1788 N.ar    1  UNL1       -0.0918
     18 N           9.1323   42.0346    9.5906 N.ar    1  UNL1       -0.1137
     19 C           6.9764   43.1135    9.1178 C.3     1  UNL1        0.1514
     20 C           6.6050   44.4549    8.5078 C.3     1  UNL1        0.0283
     21 C           4.2413   44.8172    7.8029 C.3     1  UNL1        0.0001
     22 C           5.5940   44.2675    7.3908 C.3     1  UNL1        0.0021
@<TRIPOS>BOND
     1    21    22    1
     2    22    20    1
     3    20    19    1
     4    19    15    1
     5    14    17   ar
     6    14     2    1
     7     1     5    1
     8     6     7   ar
     9     7    11    1
    10     8    13    1
    11     8     9   ar
    12    12    13    1
    13    10     5   ar
    14    15    16   ar
    15    15    18   ar
    16     2     1   am
    17    14    18   ar
    18     1     3    2
    19     5     6   ar
    20     7     8   ar
    21     9    10   ar
    22    16    17   ar
    23     2     4    1
@<TRIPOS>MOLECULE
MolPort-003-001-172 6890889 CSSS00121593491 MCULE-1736763965 PubChem-3406918 ZINC000006890889 ZINC06890889
 22 23 0 0 0
SMALL
GASTEIGER

@<TRIPOS>ATOM
      1 C           7.2517   42.2932    8.7127 C.2     1  UNL1        0.2517
      2 N           7.9468   41.0672    8.4488 N.am    1  UNL1       -0.2480
      3 O           7.7920   43.4019    8.4483 O.2     1  UNL1       -0.2697
      4 H           7.4860   40.2262    8.6716 H       1  UNL1        0.1581
      5 C           5.8989   42.2577    9.2959 C.ar    1  UNL1        0.0548
      6 C           5.5422   41.2477   10.1998 C.ar    1  UNL1        0.0190
      7 C           4.2600   41.2100   10.7556 C.ar    1  UNL1        0.0917
      8 C           3.3140   42.1879   10.4116 C.ar    1  UNL1        0.1492
      9 C           3.6717   43.1997    9.5059 C.ar    1  UNL1        0.0379
     10 C           4.9541   43.2333    8.9531 C.ar    1  UNL1        0.0077
     11 CL          3.8587   39.9267   11.8827 Cl      1  UNL1       -0.0791
     12 C           1.7789   42.4637   12.3348 C.3     1  UNL1        0.2525
     13 O           2.0341   42.1388   10.9751 O.3     1  UNL1       -0.4706
     14 C           9.2590   40.9728    7.8865 C.ar    1  UNL1        0.2619
     15 N          10.8081   40.7519    6.4998 N.ar    1  UNL1       -0.1497
     16 N          11.3629   40.9302    7.6863 N.ar    1  UNL1       -0.0438
     17 N          10.4060   41.0715    8.5895 N.ar    1  UNL1       -0.0918
     18 N           9.4884   40.7755    6.5758 N.ar    1  UNL1       -0.1137
     19 C          11.5588   40.5812    5.2678 C.3     1  UNL1        0.1514
     20 C          10.6292   40.1454    4.1474 C.3     1  UNL1        0.0283
     21 C           9.7158   38.1982    2.8868 C.3     1  UNL1        0.0001
     22 C          10.6072   38.6315    4.0355 C.3     1  UNL1        0.0021
@<TRIPOS>BOND
     1    21    22    1
     2    22    20    1
     3    20    19    1
     4    19    15    1
     5    14    17   ar
     6    14     2    1
     7     1     5    1
     8     6     7   ar
     9     7    11    1
    10     8    13    1
    11     8     9   ar
    12    12    13    1
    13    10     5   ar
    14    15    16   ar
    15    15    18   ar
    16     2     1   am
    17    14    18   ar
    18     1     3    2
    19     5     6   ar
    20     7     8   ar
    21     9    10   ar
    22    16    17   ar
    23     2     4    1
@<TRIPOS>MOLECULE
MolPort-003-001-172 6890889 CSSS00121593491 MCULE-1736763965 PubChem-3406918 ZINC000006890889 ZINC06890889
 22 23 0 0 0
SMALL
GASTEIGER

@<TRIPOS>ATOM
      1 C           9.2252   42.3038    9.7720 C.2     1  UNL1        0.2517
      2 N           8.4873   42.8391    8.6654 N.am    1  UNL1       -0.2480
      3 O           8.7021   42.2451   10.9183 O.2     1  UNL1       -0.2697
      4 H           8.9361   42.8653    7.7895 H       1  UNL1        0.1581
      5 C          10.6020   41.8196    9.5691 C.ar    1  UNL1        0.0548
      6 C          11.2039   40.9759   10.5128 C.ar    1  UNL1        0.0190
      7 C          12.5099   40.5141   10.3246 C.ar    1  UNL1        0.0917
      8 C          13.2335   40.8931    9.1833 C.ar    1  UNL1        0.1492
      9 C          12.6303   41.7384    8.2381 C.ar    1  UNL1        0.0379
     10 C          11.3251   42.1973    8.4304 C.ar    1  UNL1        0.0077
     11 CL         13.2219   39.4599   11.5327 Cl      1  UNL1       -0.0791
     12 C          15.6151   41.2684    8.6193 C.3     1  UNL1        0.2525
     13 O          14.5399   40.4239    9.0068 O.3     1  UNL1       -0.4706
     14 C           7.1483   43.3382    8.7368 C.ar    1  UNL1        0.2619
     15 N           5.0645   43.4023    8.8956 N.ar    1  UNL1       -0.1497
     16 N           5.4902   44.6486    8.7814 N.ar    1  UNL1       -0.0438
     17 N           6.8094   44.6425    8.6763 N.ar    1  UNL1       -0.0918
     18 N           6.0710   42.5451    8.8770 N.ar    1  UNL1       -0.1137
     19 C           3.6688   43.0300    9.0509 C.3     1  UNL1        0.1514
     20 C           3.4519   42.3752   10.4050 C.3     1  UNL1        0.0283
     21 C           4.0355   40.1526   11.3718 C.3     1  UNL1        0.0001
     22 C           3.3099   40.8716   10.2501 C.3     1  UNL1        0.0021
@<TRIPOS>BOND
     1    21    22    1
     2    22    20    1
     3    20    19    1
     4    19    15    1
     5    14    17   ar
     6    14     2    1
     7     1     5    1
     8     6     7   ar
     9     7    11    1
    10     8    13    1
    11     8     9   ar
    12    12    13    1
    13    10     5   ar
    14    15    16   ar
    15    15    18   ar
    16     2     1   am
    17    14    18   ar
    18     1     3    2
    19     5     6   ar
    20     7     8   ar
    21     9    10   ar
    22    16    17   ar
    23     2     4    1
@<TRIPOS>MOLECULE
MolPort-003-001-172 6890889 CSSS00121593491 MCULE-1736763965 PubChem-3406918 ZINC000006890889 ZINC06890889
 22 23 0 0 0
SMALL
GASTEIGER

@<TRIPOS>ATOM
      1 C          11.1025   40.7427   10.8028 C.2     1  UNL1        0.2517
      2 N          10.8331   41.5576    9.6543 N.am    1  UNL1       -0.2480
      3 O          10.5966   41.0310   11.9218 O.2     1  UNL1       -0.2697
      4 H          11.2498   41.2944    8.8021 H       1  UNL1        0.1581
      5 C          11.9752   39.5623   10.6753 C.ar    1  UNL1        0.0548
      6 C          13.2550   39.5609   11.2469 C.ar    1  UNL1        0.0190
      7 C          14.0864   38.4433   11.1285 C.ar    1  UNL1        0.0917
      8 C          13.6449   37.3072   10.4328 C.ar    1  UNL1        0.1492
      9 C          12.3626   37.3090    9.8602 C.ar    1  UNL1        0.0379
     10 C          11.5354   38.4280    9.9811 C.ar    1  UNL1        0.0077
     11 CL         15.6803   38.4873   11.8604 Cl      1  UNL1       -0.0791
     12 C          14.9743   35.7208    9.0738 C.3     1  UNL1        0.2525
     13 O          14.4868   36.1951   10.3215 O.3     1  UNL1       -0.4706
     14 C          10.0048   42.7242    9.6522 C.ar    1  UNL1        0.2619
     15 N           8.3981   44.0116    9.2880 N.ar    1  UNL1       -0.1497
     16 N           9.2863   44.6811   10.0023 N.ar    1  UNL1       -0.0438
     17 N          10.3200   43.8924   10.2486 N.ar    1  UNL1       -0.0918
     18 N           8.8044   42.7766    9.0476 N.ar    1  UNL1       -0.1137
     19 C           7.1258   44.5596    8.8503 C.3     1  UNL1        0.1514
     20 C           6.3340   43.5023    8.0989 C.3     1  UNL1        0.0283
     21 C           6.9429   42.2822    6.0118 C.3     1  UNL1        0.0001
     22 C           6.5677   43.6277    6.6041 C.3     1  UNL1        0.0021
@<TRIPOS>BOND
     1    21    22    1
     2    22    20    1
     3    20    19    1
     4    19    15    1
     5    14    17   ar
     6    14     2    1
     7     1     5    1
     8     6     7   ar
     9     7    11    1
    10     8    13    1
    11     8     9   ar
    12    12    13    1
    13    10     5   ar
    14    15    16   ar
    15    15    18   ar
    16     2     1   am
    17    14    18   ar
    18     1     3    2
    19     5     6   ar
    20     7     8   ar
    21     9    10   ar
    22    16    17   ar
    23     2     4    1
@<TRIPOS>MOLECULE
MolPort-003-001-172 6890889 CSSS00121593491 MCULE-1736763965 PubChem-3406918 ZINC000006890889 ZINC06890889
 22 23 0 0 0
SMALL
GASTEIGER

@<TRIPOS>ATOM
      1 C          11.2485   40.2501   10.1808 C.2     1  UNL1        0.2517
      2 N          10.6468   41.1870   11.0841 N.am    1  UNL1       -0.2480
      3 O          10.5295   39.4629    9.5066 O.2     1  UNL1       -0.2697
      4 H          11.2473   41.7813   11.5895 H       1  UNL1        0.1581
      5 C          12.7146   40.2066   10.0393 C.ar    1  UNL1        0.0548
      6 C          13.3565   40.9805    9.0627 C.ar    1  UNL1        0.0190
      7 C          14.7471   40.9424    8.9247 C.ar    1  UNL1        0.0917
      8 C          15.5166   40.1249    9.7670 C.ar    1  UNL1        0.1492
      9 C          14.8731   39.3497   10.7452 C.ar    1  UNL1        0.0379
     10 C          13.4833   39.3910   10.8794 C.ar    1  UNL1        0.0077
     11 CL         15.5067   41.9283    7.6882 Cl      1  UNL1       -0.0791
     12 C          17.7572   39.3424   10.4729 C.3     1  UNL1        0.2525
     13 O          16.9076   40.0960    9.6185 O.3     1  UNL1       -0.4706
     14 C           9.2402   41.3240   11.3071 C.ar    1  UNL1        0.2619
     15 N           7.2056   41.6671   10.9690 N.ar    1  UNL1       -0.1497
     16 N           7.3478   41.3654   12.2481 N.ar    1  UNL1       -0.0438
     17 N           8.6288   41.1441   12.4960 N.ar    1  UNL1       -0.0918
     18 N           8.3669   41.6492   10.3371 N.ar    1  UNL1       -0.1137
     19 C           5.9290   41.9527   10.3372 C.3     1  UNL1        0.1514
     20 C           4.7898   41.5466   11.2575 C.3     1  UNL1        0.0283
     21 C           2.9490   41.2380    9.6048 C.3     1  UNL1        0.0001
     22 C           3.8870   40.5380   10.5702 C.3     1  UNL1        0.0021
@<TRIPOS>BOND
     1    21    22    1
     2    22    20    1
     3    20    19    1
     4    19    15    1
     5    14    17   ar
     6    14     2    1
     7     1     5    1
     8     6     7   ar
     9     7    11    1
    10     8    13    1
    11     8     9   ar
    12    12    13    1
    13    10     5   ar
    14    15    16   ar
    15    15    18   ar
    16     2     1   am
    17    14    18   ar
    18     1     3    2
    19     5     6   ar
    20     7     8   ar
    21     9    10   ar
    22    16    17   ar
    23     2     4    1
