@<TRIPOS>MOLECULE
MolPort-002-981-682 9226409 CSSS00132429909 MCULE-9893142674 PubChem-3961480 ZINC000009226409 ZINC09226409
 21 22 0 0 0
SMALL
GASTEIGER

@<TRIPOS>ATOM
      1 C          12.5388   41.5521    6.5240 C.2     1  UNL1        0.2547
      2 N          12.8166   42.7332    5.7590 N.am    1  UNL1       -0.2479
      3 O          13.3581   41.1622    7.3996 O.2     1  UNL1       -0.2696
      4 H          12.1522   43.0043    5.0849 H       1  UNL1        0.1581
      5 C          11.2860   40.7986    6.2760 C.ar    1  UNL1        0.0876
      6 C          10.2986   40.6111    7.2740 C.ar    1  UNL1        0.1430
      7 C           9.1355   39.8848    6.9649 C.ar    1  UNL1        0.0371
      8 C           8.9454   39.3494    5.6907 C.ar    1  UNL1        0.0031
      9 C           9.9162   39.5332    4.7079 C.ar    1  UNL1        0.0003
     10 C          11.0762   40.2520    4.9999 C.ar    1  UNL1        0.0076
     11 C           9.3981   41.4277    9.4354 C.3     1  UNL1        0.2525
     12 O          10.4787   41.1440    8.5566 O.3     1  UNL1       -0.4713
     13 C          13.9842   43.5481    5.8995 C.ar    1  UNL1        0.2619
     14 N          15.9195   44.1670    6.3924 N.ar    1  UNL1       -0.1497
     15 N          15.3166   45.1865    5.8053 N.ar    1  UNL1       -0.0438
     16 N          14.0848   44.8268    5.4819 N.ar    1  UNL1       -0.0918
     17 N          15.1228   43.1148    6.4698 N.ar    1  UNL1       -0.1137
     18 C          17.2931   44.1959    6.8644 C.3     1  UNL1        0.1514
     19 C          17.3706   43.6398    8.2767 C.3     1  UNL1        0.0283
     20 C          17.0224   41.3482    9.1942 C.3     1  UNL1        0.0001
     21 C          17.8536   42.2008    8.2540 C.3     1  UNL1        0.0021
@<TRIPOS>BOND
     1    20    21    1
     2    21    19    1
     3    19    18    1
     4    18    14    1
     5    13    16   ar
     6    13     2    1
     7     1     5    1
     8     6    12    1
     9     6     7   ar
    10    11    12    1
    11     8     9   ar
    12    10     5   ar
    13    14    15   ar
    14    14    17   ar
    15     2     1   am
    16    13    17   ar
    17     1     3    2
    18     5     6   ar
    19     7     8   ar
    20     9    10   ar
    21    15    16   ar
    22     2     4    1
@<TRIPOS>MOLECULE
MolPort-002-981-682 9226409 CSSS00132429909 MCULE-9893142674 PubChem-3961480 ZINC000009226409 ZINC09226409
 21 22 0 0 0
SMALL
GASTEIGER

@<TRIPOS>ATOM
      1 C          13.8375   42.8412    6.5903 C.2     1  UNL1        0.2547
      2 N          13.0254   41.6744    6.7820 N.am    1  UNL1       -0.2479
      3 O          13.3821   43.8265    5.9489 O.2     1  UNL1       -0.2696
      4 H          13.4175   40.9264    7.2880 H       1  UNL1        0.1581
      5 C          15.2100   42.8763    7.1506 C.ar    1  UNL1        0.0876
      6 C          15.6788   41.9163    8.0805 C.ar    1  UNL1        0.1430
      7 C          16.9935   42.0140    8.5684 C.ar    1  UNL1        0.0371
      8 C          17.8367   43.0426    8.1474 C.ar    1  UNL1        0.0031
      9 C          17.3766   43.9878    7.2324 C.ar    1  UNL1        0.0003
     10 C          16.0739   43.9037    6.7393 C.ar    1  UNL1        0.0076
     11 C          15.1594   40.0309    9.6053 C.3     1  UNL1        0.2525
     12 O          14.8411   40.8794    8.5103 O.3     1  UNL1       -0.4713
     13 C          11.6897   41.5133    6.2950 C.ar    1  UNL1        0.2619
     14 N           9.6024   41.5623    6.1857 N.ar    1  UNL1       -0.1497
     15 N          10.0440   41.0252    5.0615 N.ar    1  UNL1       -0.0438
     16 N          11.3659   40.9777    5.1001 N.ar    1  UNL1       -0.0918
     17 N          10.6004   41.8885    6.9892 N.ar    1  UNL1       -0.1137
     18 C           8.1986   41.7894    6.4828 C.3     1  UNL1        0.1514
     19 C           8.0409   42.2756    7.9140 C.3     1  UNL1        0.0283
     20 C           6.5000   43.8310    6.7217 C.3     1  UNL1        0.0001
     21 C           7.3855   43.6448    7.9395 C.3     1  UNL1        0.0021
@<TRIPOS>BOND
     1    20    21    1
     2    21    19    1
     3    19    18    1
     4    18    14    1
     5    13    16   ar
     6    13     2    1
     7     1     5    1
     8     6    12    1
     9     6     7   ar
    10    11    12    1
    11     8     9   ar
    12    10     5   ar
    13    14    15   ar
    14    14    17   ar
    15     2     1   am
    16    13    17   ar
    17     1     3    2
    18     5     6   ar
    19     7     8   ar
    20     9    10   ar
    21    15    16   ar
    22     2     4    1
@<TRIPOS>MOLECULE
MolPort-002-981-682 9226409 CSSS00132429909 MCULE-9893142674 PubChem-3961480 ZINC000009226409 ZINC09226409
 21 22 0 0 0
SMALL
GASTEIGER

@<TRIPOS>ATOM
      1 C          12.6770   41.7948    7.8308 C.2     1  UNL1        0.2547
      2 N          12.8714   43.1410    7.3754 N.am    1  UNL1       -0.2479
      3 O          13.4636   40.8837    7.4555 O.2     1  UNL1       -0.2696
      4 H          12.2355   43.8233    7.6908 H       1  UNL1        0.1581
      5 C          11.5481   41.4874    8.7419 C.ar    1  UNL1        0.0876
      6 C          10.1938   41.6061    8.3447 C.ar    1  UNL1        0.1430
      7 C           9.1764   41.2968    9.2641 C.ar    1  UNL1        0.0371
      8 C           9.4865   40.8762   10.5576 C.ar    1  UNL1        0.0031
      9 C          10.8188   40.7590   10.9495 C.ar    1  UNL1        0.0003
     10 C          11.8397   41.0625   10.0478 C.ar    1  UNL1        0.0076
     11 C           8.5590   41.9331    6.5090 C.3     1  UNL1        0.2525
     12 O           9.8706   42.0275    7.0488 O.3     1  UNL1       -0.4713
     13 C          13.9175   43.5693    6.4982 C.ar    1  UNL1        0.2619
     14 N          15.8187   43.8659    5.6803 N.ar    1  UNL1       -0.1497
     15 N          14.9481   44.4566    4.8799 N.ar    1  UNL1       -0.0438
     16 N          13.7314   44.2886    5.3724 N.ar    1  UNL1       -0.0918
     17 N          15.2169   43.2916    6.7079 N.ar    1  UNL1       -0.1137
     18 C          17.2511   43.8307    5.4405 C.3     1  UNL1        0.1514
     19 C          17.9621   43.1954    6.6241 C.3     1  UNL1        0.0283
     20 C          17.5806   43.5569    9.0610 C.3     1  UNL1        0.0001
     21 C          18.0715   44.1850    7.7701 C.3     1  UNL1        0.0021
@<TRIPOS>BOND
     1    20    21    1
     2    21    19    1
     3    19    18    1
     4    18    14    1
     5    13    16   ar
     6    13     2    1
     7     1     5    1
     8     6    12    1
     9     6     7   ar
    10    11    12    1
    11     8     9   ar
    12    10     5   ar
    13    14    15   ar
    14    14    17   ar
    15     2     1   am
    16    13    17   ar
    17     1     3    2
    18     5     6   ar
    19     7     8   ar
    20     9    10   ar
    21    15    16   ar
    22     2     4    1
@<TRIPOS>MOLECULE
MolPort-002-981-682 9226409 CSSS00132429909 MCULE-9893142674 PubChem-3961480 ZINC000009226409 ZINC09226409
 21 22 0 0 0
SMALL
GASTEIGER

@<TRIPOS>ATOM
      1 C          10.7555   41.4436    7.4042 C.2     1  UNL1        0.2547
      2 N          11.6317   41.9021    6.3652 N.am    1  UNL1       -0.2479
      3 O          11.1144   41.5221    8.6103 O.2     1  UNL1       -0.2696
      4 H          11.3149   41.8233    5.4364 H       1  UNL1        0.1581
      5 C           9.4313   40.8796    7.0474 C.ar    1  UNL1        0.0876
      6 C           9.2482   39.9955    5.9561 C.ar    1  UNL1        0.1430
      7 C           7.9620   39.5008    5.6783 C.ar    1  UNL1        0.0371
      8 C           6.8698   39.8706    6.4634 C.ar    1  UNL1        0.0031
      9 C           7.0488   40.7404    7.5375 C.ar    1  UNL1        0.0003
     10 C           8.3196   41.2397    7.8255 C.ar    1  UNL1        0.0076
     11 C          10.2201   38.7226    4.0628 C.3     1  UNL1        0.2525
     12 O          10.3374   39.6174    5.1610 O.3     1  UNL1       -0.4713
     13 C          12.9305   42.4650    6.5739 C.ar    1  UNL1        0.2619
     14 N          14.9189   42.6855    7.1812 N.ar    1  UNL1       -0.1497
     15 N          14.5716   43.7973    6.5562 N.ar    1  UNL1       -0.0438
     16 N          13.3135   43.6904    6.1598 N.ar    1  UNL1       -0.0918
     17 N          13.9217   41.8181    7.2131 N.ar    1  UNL1       -0.1137
     18 C          16.2396   42.4420    7.7354 C.3     1  UNL1        0.1514
     19 C          16.8941   43.7586    8.1202 C.3     1  UNL1        0.0283
     20 C          17.8638   43.8204    5.8244 C.3     1  UNL1        0.0001
     21 C          18.1548   43.9821    7.3046 C.3     1  UNL1        0.0021
@<TRIPOS>BOND
     1    20    21    1
     2    21    19    1
     3    19    18    1
     4    18    14    1
     5    13    16   ar
     6    13     2    1
     7     1     5    1
     8     6    12    1
     9     6     7   ar
    10    11    12    1
    11     8     9   ar
    12    10     5   ar
    13    14    15   ar
    14    14    17   ar
    15     2     1   am
    16    13    17   ar
    17     1     3    2
    18     5     6   ar
    19     7     8   ar
    20     9    10   ar
    21    15    16   ar
    22     2     4    1
@<TRIPOS>MOLECULE
MolPort-002-981-682 9226409 CSSS00132429909 MCULE-9893142674 PubChem-3961480 ZINC000009226409 ZINC09226409
 21 22 0 0 0
SMALL
GASTEIGER

@<TRIPOS>ATOM
      1 C          12.0531   41.2366    9.4194 C.2     1  UNL1        0.2547
      2 N          11.2728   41.9915   10.3569 N.am    1  UNL1       -0.2479
      3 O          11.7388   41.2321    8.1984 O.2     1  UNL1       -0.2696
      4 H          11.5507   41.9688   11.3011 H       1  UNL1        0.1581
      5 C          13.2259   40.4657    9.8982 C.ar    1  UNL1        0.0876
      6 C          14.4770   40.4904    9.2346 C.ar    1  UNL1        0.1430
      7 C          15.5443   39.7331    9.7479 C.ar    1  UNL1        0.0371
      8 C          15.3837   38.9613   10.8988 C.ar    1  UNL1        0.0031
      9 C          14.1531   38.9362   11.5525 C.ar    1  UNL1        0.0003
     10 C          13.0843   39.6828   11.0549 C.ar    1  UNL1        0.0076
     11 C          15.7216   42.1808    7.9144 C.3     1  UNL1        0.2525
     12 O          14.6498   41.2616    8.0784 O.3     1  UNL1       -0.4713
     13 C          10.1221   42.7749   10.0263 C.ar    1  UNL1        0.2619
     14 N           8.1879   43.2987    9.4298 N.ar    1  UNL1       -0.1497
     15 N           8.8352   44.4195    9.6985 N.ar    1  UNL1       -0.0438
     16 N          10.0675   44.1217   10.0780 N.ar    1  UNL1       -0.0918
     17 N           8.9548   42.2397    9.6255 N.ar    1  UNL1       -0.1137
     18 C           6.8007   43.2426    9.0020 C.3     1  UNL1        0.1514
     19 C           6.3779   44.5845    8.4273 C.3     1  UNL1        0.0283
     20 C           3.9225   44.1607    8.5062 C.3     1  UNL1        0.0001
     21 C           5.1115   44.4333    7.6040 C.3     1  UNL1        0.0021
@<TRIPOS>BOND
     1    20    21    1
     2    21    19    1
     3    19    18    1
     4    18    14    1
     5    13    16   ar
     6    13     2    1
     7     1     5    1
     8     6    12    1
     9     6     7   ar
    10    11    12    1
    11     8     9   ar
    12    10     5   ar
    13    14    15   ar
    14    14    17   ar
    15     2     1   am
    16    13    17   ar
    17     1     3    2
    18     5     6   ar
    19     7     8   ar
    20     9    10   ar
    21    15    16   ar
    22     2     4    1
@<TRIPOS>MOLECULE
MolPort-002-981-682 9226409 CSSS00132429909 MCULE-9893142674 PubChem-3961480 ZINC000009226409 ZINC09226409
 21 22 0 0 0
SMALL
GASTEIGER

@<TRIPOS>ATOM
      1 C          13.5034   42.0231    7.0086 C.2     1  UNL1        0.2547
      2 N          12.4061   41.1232    7.2183 N.am    1  UNL1       -0.2479
      3 O          13.3840   42.9834    6.2004 O.2     1  UNL1       -0.2696
      4 H          12.5393   40.3860    7.8571 H       1  UNL1        0.1581
      5 C          14.7719   41.8133    7.7473 C.ar    1  UNL1        0.0876
      6 C          15.9254   42.6035    7.5212 C.ar    1  UNL1        0.1430
      7 C          17.0930   42.3457    8.2604 C.ar    1  UNL1        0.0371
      8 C          17.1261   41.3240    9.2097 C.ar    1  UNL1        0.0031
      9 C          15.9917   40.5459    9.4330 C.ar    1  UNL1        0.0003
     10 C          14.8253   40.7900    8.7069 C.ar    1  UNL1        0.0076
     11 C          17.0626   44.0607    5.8681 C.3     1  UNL1        0.2525
     12 O          15.9038   43.6318    6.5707 O.3     1  UNL1       -0.4713
     13 C          11.1332   41.2139    6.5714 C.ar    1  UNL1        0.2619
     14 N           9.1037   41.5895    6.2378 N.ar    1  UNL1       -0.1497
     15 N           9.6042   41.1011    5.1161 N.ar    1  UNL1       -0.0438
     16 N          10.8910   40.8498    5.2953 N.ar    1  UNL1       -0.0918
     17 N          10.0280   41.6824    7.1785 N.ar    1  UNL1       -0.1137
     18 C           7.7191   41.9979    6.4013 C.3     1  UNL1        0.1514
     19 C           6.9591   40.9541    7.2030 C.3     1  UNL1        0.0283
     20 C           7.1199   41.5907    9.6079 C.3     1  UNL1        0.0001
     21 C           6.2402   41.6034    8.3718 C.3     1  UNL1        0.0021
@<TRIPOS>BOND
     1    20    21    1
     2    21    19    1
     3    19    18    1
     4    18    14    1
     5    13    16   ar
     6    13     2    1
     7     1     5    1
     8     6    12    1
     9     6     7   ar
    10    11    12    1
    11     8     9   ar
    12    10     5   ar
    13    14    15   ar
    14    14    17   ar
    15     2     1   am
    16    13    17   ar
    17     1     3    2
    18     5     6   ar
    19     7     8   ar
    20     9    10   ar
    21    15    16   ar
    22     2     4    1
@<TRIPOS>MOLECULE
MolPort-002-981-682 9226409 CSSS00132429909 MCULE-9893142674 PubChem-3961480 ZINC000009226409 ZINC09226409
 21 22 0 0 0
SMALL
GASTEIGER

@<TRIPOS>ATOM
      1 C          13.5561   41.6774    7.8705 C.2     1  UNL1        0.2547
      2 N          14.2592   40.6306    8.5542 N.am    1  UNL1       -0.2479
      3 O          12.3026   41.7654    7.9737 O.2     1  UNL1       -0.2696
      4 H          15.2373   40.5959    8.4478 H       1  UNL1        0.1581
      5 C          14.3141   42.6491    7.0456 C.ar    1  UNL1        0.0876
      6 C          15.7101   42.8425    7.1856 C.ar    1  UNL1        0.1430
      7 C          16.3611   43.7823    6.3676 C.ar    1  UNL1        0.0371
      8 C          15.6486   44.5226    5.4240 C.ar    1  UNL1        0.0031
      9 C          14.2749   44.3331    5.2853 C.ar    1  UNL1        0.0003
     10 C          13.6148   43.4037    6.0902 C.ar    1  UNL1        0.0076
     11 C          17.8023   42.3596    8.4261 C.3     1  UNL1        0.2525
     12 O          16.4357   42.1050    8.1296 O.3     1  UNL1       -0.4713
     13 C          13.6493   39.6329    9.3787 C.ar    1  UNL1        0.2619
     14 N          12.6186   37.9133    9.9718 N.ar    1  UNL1       -0.1497
     15 N          12.9749   38.5581   11.0694 N.ar    1  UNL1       -0.0438
     16 N          13.6296   39.6561   10.7273 N.ar    1  UNL1       -0.0918
     17 N          13.0242   38.5486    8.8857 N.ar    1  UNL1       -0.1137
     18 C          11.8980   36.6519    9.9667 C.3     1  UNL1        0.1514
     19 C          12.7409   35.5676   10.6178 C.3     1  UNL1        0.0283
     20 C          14.7003   35.3039    9.0991 C.3     1  UNL1        0.0001
     21 C          13.3898   34.6936    9.5596 C.3     1  UNL1        0.0021
@<TRIPOS>BOND
     1    20    21    1
     2    21    19    1
     3    19    18    1
     4    18    14    1
     5    13    16   ar
     6    13     2    1
     7     1     5    1
     8     6    12    1
     9     6     7   ar
    10    11    12    1
    11     8     9   ar
    12    10     5   ar
    13    14    15   ar
    14    14    17   ar
    15     2     1   am
    16    13    17   ar
    17     1     3    2
    18     5     6   ar
    19     7     8   ar
    20     9    10   ar
    21    15    16   ar
    22     2     4    1
@<TRIPOS>MOLECULE
MolPort-002-981-682 9226409 CSSS00132429909 MCULE-9893142674 PubChem-3961480 ZINC000009226409 ZINC09226409
 21 22 0 0 0
SMALL
GASTEIGER

@<TRIPOS>ATOM
      1 C          13.7145   41.6936    7.3835 C.2     1  UNL1        0.2547
      2 N          12.9858   40.9164    8.3440 N.am    1  UNL1       -0.2479
      3 O          13.1631   42.0365    6.3027 O.2     1  UNL1       -0.2696
      4 H          13.4518   40.6686    9.1750 H       1  UNL1        0.1581
      5 C          15.1147   42.0870    7.6728 C.ar    1  UNL1        0.0876
      6 C          15.7643   43.1475    6.9949 C.ar    1  UNL1        0.1430
      7 C          17.0942   43.4632    7.3234 C.ar    1  UNL1        0.0371
      8 C          17.7767   42.7455    8.3057 C.ar    1  UNL1        0.0031
      9 C          17.1386   41.7018    8.9734 C.ar    1  UNL1        0.0003
     10 C          15.8186   41.3768    8.6582 C.ar    1  UNL1        0.0076
     11 C          15.3060   45.2616    5.7826 C.3     1  UNL1        0.2525
     12 O          15.0889   43.8749    6.0069 O.3     1  UNL1       -0.4713
     13 C          11.6343   40.4734    8.1880 C.ar    1  UNL1        0.2619
     14 N           9.9550   39.4519    7.4754 N.ar    1  UNL1       -0.1497
     15 N           9.5494   40.2453    8.4519 N.ar    1  UNL1       -0.0438
     16 N          10.5918   40.9098    8.9244 N.ar    1  UNL1       -0.0918
     17 N          11.2577   39.5582    7.2769 N.ar    1  UNL1       -0.1137
     18 C           9.0801   38.5575    6.7371 C.3     1  UNL1        0.1514
     19 C           8.6230   39.2216    5.4488 C.3     1  UNL1        0.0283
     20 C          10.4409   39.7862    3.8391 C.3     1  UNL1        0.0001
     21 C           9.4478   38.7253    4.2750 C.3     1  UNL1        0.0021
@<TRIPOS>BOND
     1    20    21    1
     2    21    19    1
     3    19    18    1
     4    18    14    1
     5    13    16   ar
     6    13     2    1
     7     1     5    1
     8     6    12    1
     9     6     7   ar
    10    11    12    1
    11     8     9   ar
    12    10     5   ar
    13    14    15   ar
    14    14    17   ar
    15     2     1   am
    16    13    17   ar
    17     1     3    2
    18     5     6   ar
    19     7     8   ar
    20     9    10   ar
    21    15    16   ar
    22     2     4    1
@<TRIPOS>MOLECULE
MolPort-002-981-682 9226409 CSSS00132429909 MCULE-9893142674 PubChem-3961480 ZINC000009226409 ZINC09226409
 21 22 0 0 0
SMALL
GASTEIGER

@<TRIPOS>ATOM
      1 C          13.8592   41.9479    7.2882 C.2     1  UNL1        0.2547
      2 N          13.1040   41.2733    8.3042 N.am    1  UNL1       -0.2479
      3 O          13.3495   42.1456    6.1521 O.2     1  UNL1       -0.2696
      4 H          13.5375   41.1381    9.1777 H       1  UNL1        0.1581
      5 C          15.2373   42.4073    7.5859 C.ar    1  UNL1        0.0876
      6 C          16.1180   41.6823    8.4255 C.ar    1  UNL1        0.1430
      7 C          17.4111   42.1805    8.6619 C.ar    1  UNL1        0.0371
      8 C          17.8329   43.3763    8.0803 C.ar    1  UNL1        0.0031
      9 C          16.9673   44.0905    7.2539 C.ar    1  UNL1        0.0003
     10 C          15.6806   43.6084    7.0099 C.ar    1  UNL1        0.0076
     11 C          16.4655   39.8045   10.0074 C.3     1  UNL1        0.2525
     12 O          15.7053   40.4807    9.0148 O.3     1  UNL1       -0.4713
     13 C          11.7695   40.7819    8.1467 C.ar    1  UNL1        0.2619
     14 N          10.1391   39.6599    7.4729 N.ar    1  UNL1       -0.1497
     15 N           9.6840   40.5182    8.3693 N.ar    1  UNL1       -0.0438
     16 N          10.6943   41.2474    8.8152 N.ar    1  UNL1       -0.0918
     17 N          11.4442   39.7857    7.3033 N.ar    1  UNL1       -0.1137
     18 C           9.3101   38.6846    6.7858 C.3     1  UNL1        0.1514
     19 C           8.7448   39.2875    5.5103 C.3     1  UNL1        0.0283
     20 C          10.5466   39.7988    3.8650 C.3     1  UNL1        0.0001
     21 C           9.5093   38.7809    4.3005 C.3     1  UNL1        0.0021
@<TRIPOS>BOND
     1    20    21    1
     2    21    19    1
     3    19    18    1
     4    18    14    1
     5    13    16   ar
     6    13     2    1
     7     1     5    1
     8     6    12    1
     9     6     7   ar
    10    11    12    1
    11     8     9   ar
    12    10     5   ar
    13    14    15   ar
    14    14    17   ar
    15     2     1   am
    16    13    17   ar
    17     1     3    2
    18     5     6   ar
    19     7     8   ar
    20     9    10   ar
    21    15    16   ar
    22     2     4    1
@<TRIPOS>MOLECULE
MolPort-002-981-682 9226409 CSSS00132429909 MCULE-9893142674 PubChem-3961480 ZINC000009226409 ZINC09226409
 21 22 0 0 0
SMALL
GASTEIGER

@<TRIPOS>ATOM
      1 C          12.5062   41.7317    6.4506 C.2     1  UNL1        0.2547
      2 N          11.3620   42.1820    5.7119 N.am    1  UNL1       -0.2479
      3 O          12.4648   40.6323    7.0665 O.2     1  UNL1       -0.2696
      4 H          11.4341   43.0457    5.2451 H       1  UNL1        0.1581
      5 C          13.7306   42.5675    6.4825 C.ar    1  UNL1        0.0876
      6 C          14.8220   42.2885    7.3410 C.ar    1  UNL1        0.1430
      7 C          15.9505   43.1263    7.3156 C.ar    1  UNL1        0.0371
      8 C          16.0052   44.2246    6.4570 C.ar    1  UNL1        0.0031
      9 C          14.9320   44.5000    5.6118 C.ar    1  UNL1        0.0003
     10 C          13.8049   43.6773    5.6258 C.ar    1  UNL1        0.0076
     11 C          15.8393   40.8589    9.0933 C.3     1  UNL1        0.2525
     12 O          14.7781   41.1887    8.2071 O.3     1  UNL1       -0.4713
     13 C          10.1240   41.4732    5.6009 C.ar    1  UNL1        0.2619
     14 N           8.1871   40.7959    6.0022 N.ar    1  UNL1       -0.1497
     15 N           8.5998   40.1843    4.9053 N.ar    1  UNL1       -0.0438
     16 N           9.8274   40.5909    4.6246 N.ar    1  UNL1       -0.0918
     17 N           9.1094   41.6183    6.4722 N.ar    1  UNL1       -0.1137
     18 C           6.8745   40.6060    6.5949 C.3     1  UNL1        0.1514
     19 C           6.5760   41.7316    7.5716 C.3     1  UNL1        0.0283
     20 C           5.2623   41.4141    9.6664 C.3     1  UNL1        0.0001
     21 C           6.6108   41.2175    8.9996 C.3     1  UNL1        0.0021
@<TRIPOS>BOND
     1    20    21    1
     2    21    19    1
     3    19    18    1
     4    18    14    1
     5    13    16   ar
     6    13     2    1
     7     1     5    1
     8     6    12    1
     9     6     7   ar
    10    11    12    1
    11     8     9   ar
    12    10     5   ar
    13    14    15   ar
    14    14    17   ar
    15     2     1   am
    16    13    17   ar
    17     1     3    2
    18     5     6   ar
    19     7     8   ar
    20     9    10   ar
    21    15    16   ar
    22     2     4    1
